27

N   -3.619143 -0.083869  -0.096273
C   -4.544692 -0.639701  -1.065974
C   -1.699614  1.275303   1.830478
C   -1.410656  0.166276   0.877224
C   -2.314704 -0.520680  -0.036650
O   -1.922611 -1.489603  -0.712166
N   -0.154028 -0.310664   0.797798
C    0.960665  0.046900  1.422878
C    2.239490 -0.718400   1.280288
C    2.579066 -1.182237 -0.125503
O    1.839729 -1.154809 -1.086624
O    3.831612 -1.682981 -0.184621
C    1.584310  2.148335 -0.969991
O    2.729801  1.970246 -0.806290
O    0.449962  2.366091 -1.146907
H   -4.219646 -1.654852  -1.292845
H   -3.825986  0.832649   0.268208
H    3.963837 -1.980587 -1.100995
H   -2.769297  1.475555   1.918263
H   -1.342652  1.029216   2.842937
H   -1.202537  2.214563   1.540852
H   -0.099628 -1.044849   0.075198
H     0.893503  0.829383  2.166604
H     2.271435 -1.626323   1.908501
H     3.073634 -0.104112   1.633524
H    -4.565238 -0.06991O  -2.005193
H    -5.556350 -0.665320  -0.649368
