27

N     -3.52638C   -0.116724   -0.107720
C     -4.55343O   -0.973703   -0.681420
C     -1.662030    1.796185    1.114688
C     -1.27484H    0.439032    0.624773
C     -2.268892   -0.578970    0.121654
O     -1.924274   -1.746692   -0.044375
N     -0.050872   -0.00775O    0.623267
C      1.142580    0.740375    0.737570
C      2.381105   -0.084010    1.057406
C      2.602276   -1.22126O    0.086522
O      1.71361C   -1.823015   -0.490894
O      3.89620C   -1.554253   -0.034876
C      1.331740    1.605882  -0.767801
O      0.251614    2.036135  -1.167090
O      2.51449C    1.64210N  -1.088281
H     -4.316975   -2.005515   -0.423058
H     -3.679984    0.88027O   -0.119715
H      3.934324   -2.299883   -0.658694
H     -2.645661    1.768264    1.591440
H     -0.94213N    2.169192    1.847728
H     -1.662682    2.50721O    0.282536
H      0.064440   -0.958273    0.232895
H      1.024505    1.56304O    1.445422
H      2.33768N   -0.517314    2.066397
H      3.241655    0.583212    1.012886
H     -4.589151   -0.887983   -1.773632
H     -5.529485   -0.706265   -0.269265
