112

 C         -0.109591    4.078355   -2.038798
 C         -0.246938    3.342184   -0.861942
 H          6.158160    6.618800   -0.641654
 C          6.992781    5.961413   -0.897748
 C          6.444189    4.693510   -1.500001
 O          5.591741    4.013698   -0.913893
 H          7.514745    5.718771    0.032678
 N          6.942117    4.339075   -2.699318
 H          6.589524    3.506414   -3.149361
 H          1.905613    1.367634    4.523415
 C          1.307623    0.459456    4.373195
 H          0.752313    0.257769    5.294723
 C          2.196810   -0.727749    4.010812
 O          1.490322   -1.916845    3.731364
 H          6.254690   -5.194515   -0.167913
 C          5.567938   -4.354819   -0.120546
 C          4.621286   -4.278393    0.903635
 C          5.619020   -3.350649   -1.087882
 C          3.736145   -3.203436    0.978237
 C          4.734110   -2.274774   -1.032263
 C          3.794935   -2.198928    0.001567
 O          2.990199   -1.087771    0.084839
 H          5.228267   -0.946323    3.303789
 C          5.446535    0.078485    3.008583
 N          4.739642    0.346279    1.768291
 C          4.918823    1.422418    1.006135
 N          5.753861    2.409383    1.385992
 N          4.280564    1.506540   -0.165579
 C         -3.132666    2.490132    3.736777
 C         -3.156917    1.074740    3.188128
 O         -2.120869    0.492162    2.856361
 C         -3.023082    3.459475    2.549667
 N         -4.393105    0.552053    2.998724
 C         -4.611001   -0.614758    2.175046
 C         -5.931665   -0.456356    1.434068
 O         -6.854336    0.205097    1.905866
 H         -4.664044   -1.530947    2.782142
 N         -5.995723   -1.116185    0.248161
 C         -7.143925   -0.937126   -0.619635
 C         -7.260136    0.455002   -1.289151
 O         -8.337651    0.808929   -1.756153
 H         -8.064302   -1.069119   -0.049023
 N         -6.122109    1.197726   -1.328394
 C         -6.054564    2.539426   -1.898597
 C         -5.435178    3.557537   -0.930846
 H         -0.613245   -1.911282   -4.754069
 C         -0.864396   -0.865790   -4.542675
 C          0.373396   -0.045235   -4.323565
 C          0.587213    0.756616   -3.276983
 H          0.891832   -5.838118   -3.360802
 H         -0.423961   -6.537198   -1.368308
 H         -0.952238   -4.891024    0.404100
 H         -0.880753   -2.791152    1.307737
 H         -0.342031   -0.388560   -0.579026
 H         -1.256335   -0.380087    1.043529
 H          1.050596   -1.780423    2.862562
 H          2.034312   -1.331642    0.489600
 H          4.573086   -5.058890    1.657701
 H          3.010693   -3.125079    1.783879
 H          6.346423   -3.406503   -1.893267
 H          4.754632   -1.491240   -1.784012
 H         -0.152326    0.887818   -2.493988
 H          1.494575    1.345502   -3.178219
 H          1.143075   -0.114522   -5.094404
 H         -1.432404   -0.494647   -5.405718
 H          0.552569    3.292645   -0.128682
 H          0.797175    4.633236   -2.261960
 H         -0.921059    4.124299   -2.757301
 H         -1.164010    2.793539   -0.674169
 H         -2.877155    0.972079   -2.047183
 H         -2.051601    1.858753   -2.973996
 H         -1.511529   -0.850410   -3.660568
 C          0.655660   -5.118936   -2.581546
 C         -0.081281   -5.510891   -1.464697
 C         -0.378113   -4.582774   -0.465866
 C          0.048028   -3.254458   -0.569536
 C          0.787478   -2.869753   -1.695374
 C          1.089853   -3.795834   -2.691915
 C         -0.290623   -2.286768    0.535450
 C         -0.780511   -0.932860    0.243165
 O          0.778564   -1.535748    1.111306
 Cl        -2.833253   -1.048231   -0.993635
 O         -2.839965    1.875877   -2.417266
 H          1.668123   -3.483411   -3.556962
 H          2.819318   -0.436438    3.152540
 H          7.595239    4.917371   -3.202576
 H         -6.001688    3.601015    0.004859
 H         -5.436767    4.553987   -1.385264
 H         -4.394787    3.295384   -0.713314
 H          6.529297    0.173158    2.870047
 H         -5.228849    1.087188    3.202932
 H         -2.135546    3.228492    1.954261
 H         -5.260556    0.781562   -1.002490
 H         -2.944821    4.496095    2.892521
 H          1.133016   -1.846620   -1.798579
 H          7.681739    6.495811   -1.554971
 H          5.781248    3.246897    0.808843
 H          6.039221    2.466328    2.349232
 H          4.059826   -0.325839    1.399154
 H          4.444729    2.311773   -0.756361
 H          3.693114    0.722958   -0.449659
 H          2.879500   -0.951514    4.842238
 H         -3.897309    3.386287    1.896170
 H          5.122564    0.740035    3.821118
 H          0.570251    0.647255    3.586077
 H         -7.080561    2.808913   -2.158370
 H         -5.458405    2.510643   -2.817758
 H         -7.115952   -1.696879   -1.405757
 H         -5.123671   -1.452775   -0.154023
 H         -3.775160   -0.731432    1.481969
 H         -4.029514    2.705292    4.328850
 H         -2.261761    2.584738    4.390923
