77

O -2.506562 -0.793884 -1.591214 
C -1.640912 -0.289954 -0.870512 
C -1.996289 1.036734 -0.170929 
O -3.067374 1.058017 0.508016 
C -0.327315 -0.997928 -0.654184 
C 0.973641 -0.236925 -0.541169 
C 2.083183 -0.676091 -1.149212 
C 3.480994 -0.133318 -0.981349 
O 4.384015 -0.947101 -1.337844 
O 3.669388 1.026050 -0.502709 
O -1.217297 1.990085 -0.387719 
O -2.896993 -2.698106 -3.680621 
O 1.529328 3.068272 -0.251236 
N -5.490556 -0.340491 0.395270 
C -6.075199 -0.948121 -0.644753 
N -5.378139 -1.199268 -1.747426 
C -5.867407 -1.941798 -2.911308 
N -7.383761 -1.294978 -0.563863 
N 6.946989 -0.474174 -1.087749 
C 7.320382 0.654891 -0.505228 
N 8.630259 0.930772 -0.251867 
C 9.756977 0.054148 -0.571858 
N 6.384860 1.543855 -0.144338 
N -1.907388 4.549118 0.433628 
C -2.740654 4.617771 1.459670 
N -3.390991 3.518167 1.874781 
H -3.254637 2.617204 1.377153 
H -3.718916 3.486045 2.827673 
H -6.572627 -1.343623 -3.498426 
H -4.991590 -2.196977 -3.513095 
H -4.396616 -0.908200 -1.747795 
H -7.795042 -1.856934 -1.291710 
H -7.842634 -1.310414 0.332744 
H -4.531117 0.049151 0.343557 
H -6.064259 -0.024817 1.161005 
H 9.573543 -0.950779 -0.181209 
H 9.952302 -0.006851 -1.649877 
H 8.845692 1.894561 -0.047341 
H 7.636841 -1.061493 -1.527789 
C -1.303249 5.713002 -0.202990 
N -2.967261 5.793817 2.089609 
N 0.671033 -2.925781 1.843695 
C 0.538766 -2.387076 3.203996 
C -0.541507 -3.293665 3.833015 
C -0.451320 -4.617319 3.022373 
C 0.700036 -4.390479 2.018068 
C 0.562181 -5.144742 0.700414 
H 0.556617 -6.225607 0.873509 
H 2.292506 2.473561 -0.385190 
H -2.418840 -2.406522 -4.466518 
H 1.514239 -2.586002 1.385103 
H -6.344464 -2.879735 -2.605498 
H 10.646555 0.448457 -0.080079 
H 1.644578 -4.701703 2.503210 
H -0.263226 -5.490091 3.653445 
H -1.384612 -4.801397 2.479839 
H -0.366717 -3.439688 4.902235 
H -1.532664 -2.843573 3.724394 
H 1.476736 -2.469808 3.779785 
H 0.257576 -1.329177 3.181927 
H -2.060323 6.359053 -0.659897 
H -0.695341 6.293520 0.500999 
H -1.620161 3.598004 0.120718 
H -2.460087 6.622630 1.828423 
H -3.768870 5.904575 2.688353 
H 5.892678 -0.679029 -1.201690 
H 6.624336 2.260577 0.522601 
H 5.363346 1.348812 -0.305825 
H -0.626712 5.349536 -0.976079 
H 0.794054 2.591608 -0.658326 
H -0.256025 -1.769061 -1.428751 
H -0.464651 -1.564614 0.293864 
H 1.012943 0.635242 0.104960 
H 2.041031 -1.563575 -1.778313 
H -2.515026 -2.178931 -2.952559 
H -0.370390 -4.870233 0.196391 
H 1.394786 -4.922402 0.024248 
