77

O -2.931032 -1.036540 -1.337907 
C -1.945482 -0.417366 -0.834053 
C -2.311386 0.916885 -0.138252 
O -3.379615 0.909587 0.557401 
C -0.631104 -0.937465 -0.964298 
C 0.580053 -0.436704 -0.500767 
C 1.821228 -1.110882 -0.658997 
C 3.173196 -0.435386 -0.565811 
O 4.184416 -1.210074 -0.653216 
O 3.257273 0.821228 -0.377012 
O -1.594942 1.926961 -0.356368 
O -2.916012 -3.161233 -3.107556 
O 1.202454 2.787923 0.288128 
N -5.643936 -0.812764 0.691055 
C -6.215319 -1.591538 -0.238965 
N -5.570918 -1.842213 -1.368486 
C -6.021175 -2.755586 -2.416554 
N -7.456098 -2.107778 -0.017872 
N 6.722779 -0.089324 -1.054516 
C 6.821445 1.233649 -0.901770 
N 7.994167 1.904190 -1.087131 
C 9.326603 1.364902 -1.398824 
N 5.734068 1.909717 -0.530188 
N -2.664978 4.439791 0.167345 
C -3.439983 4.480823 1.243801 
N -3.877561 3.338387 1.785805 
C -2.330099 5.609479 -0.636822 
N -3.840327 5.674094 1.759592 
N 2.599167 -2.844001 1.251350 
C 3.030283 -1.927416 2.364656 
C 2.357757 -2.477356 3.639203 
C 1.283358 -3.441627 3.114028 
C 1.932538 -4.048766 1.866134 
C 0.988316 -4.815510 0.939088 
H 0.567588 -5.666309 1.481941 
H 1.889533 2.180030 -0.042956 
H -2.573399 -2.792572 -3.931192 
H 3.394721 -3.066808 0.649204 
H -6.386648 -3.697586 -1.991130 
H 10.069030 2.109663 -1.110943 
H 2.736982 -4.726577 2.186549 
H 1.000458 -4.208100 3.839954 
H 0.375166 -2.899132 2.824361 
H 3.085227 -3.023309 4.248524 
H 1.946980 -1.676912 4.258759 
H 4.119363 -1.901876 2.428339 
H 2.689728 -0.919331 2.110798 
H -3.225794 6.194480 -0.867672 
H -1.589907 6.252584 -0.144353 
H -2.243312 3.507828 -0.062302 
H -3.311172 6.509551 1.569894 
H -4.481192 5.698081 2.535580 
H -3.664849 2.417234 1.325250 
H -4.185519 3.340283 2.745439 
H -6.805625 -2.304450 -3.034049 
H -5.142799 -2.989594 -3.023941 
H -4.629041 -1.424435 -1.446678 
H -7.820137 -2.795724 -0.657138
H -7.816472 -2.135696 0.922446 
H -4.742919 -0.322462 0.523205 
H -6.204860 -0.479081 1.458264 
H 9.508706 0.460049 -0.812900 
H 9.446206 1.137094 -2.464317 
H 7.902449 2.907236 -1.141322 
H 7.425012 -0.586115 -1.579045 
H 5.783992 -0.543042 -0.890759 
H 5.825935 2.861546 -0.210914 
H 4.776757 1.443073 -0.457724 
H -1.893775 5.259083 -1.572236 
H 0.401022 2.530573 -0.190792 
H -0.607082 -1.873723 -1.523211 
H 1.987247 -2.086186 0.435152 
H 0.584891 0.497798 0.056102 
H 1.826604 -1.908648 -1.408095 
H -2.770546 -2.446776 -2.450065 
H 0.164271 -4.181456 0.596742 
H 1.510925 -5.204608 0.060024 
