82

C  -6.01490000    1.95429400    0.45322700 
C  -5.30604300    0.78662200    0.52729300 
C  -4.01400200    2.22135900   -0.46423700 
N  -4.06249100    0.96441700   -0.05017500 
C  -4.43837200   -4.25335200   -1.72522700 
C  -4.06901600   -3.39223000   -0.72814000 
C  -3.33535900   -2.53253200   -2.58412400 
N  -3.38083600   -2.32587500   -1.27719700 
N  -1.47310200    1.59724200   -3.72205100 
C   1.92376900    3.89328100   -1.33791100 
N   1.91122000    2.62362500   -0.79057700 
C   3.19609800    4.21058300   -1.73151200 
C   3.15514000    2.17430400   -0.85807700 
C   0.30542700    4.18984000    3.35726900 
C   0.63474400    3.82606000    2.08163700 
C  -0.62627900    2.23594300    2.86434800 
N   0.04899600    2.60787700    1.78132500 
C  -3.03324500   -1.23259500    2.72534200 
O  -1.98504300   -0.60615700    3.03944200 
O  -3.42461000   -1.46296900    1.53091200 
Zn -2.57630900   -0.63207700   -0.22773200 
Zn  0.22655200    1.44539300   -0.02617400 
C  -1.46392000    1.19834000   -2.41764700 
O  -1.94461700    0.05311000   -2.14849600 
O  -0.97914100    2.02699200   -1.55925000 
O  -0.79700400   -0.20383600    0.68071800 
C   6.23929800   -1.42110800   -0.04308200 
C   5.47343200   -1.32984000   -1.20648300 
C   5.70596600   -1.89249600    1.15531000 
C   4.13532200   -1.70420300   -1.16199300 
C   4.36430900   -2.26065700    1.19550100 
C   3.58047600   -2.15827000    0.04152000 
O  -0.13990000   -2.47178800   -0.11013400 
O   1.48703100   -0.22846800   -0.37358300 
C   0.08018400   -3.68685200   -0.86482600 
H   0.67041000   -4.40213400   -0.29168000 
H  -0.91881000   -4.08129000   -1.05119800 
H   0.58249400   -3.47223900   -1.80976600 
O   1.15469900   -1.35426400    1.96229400 
P   1.02272000   -1.46724100    0.36750800 
O   2.26519400   -2.56019300    0.07228300 
C   0.78914800   -2.44267800    2.83763400 
H  -0.28983900   -2.43233200    2.99656000 
H   1.12296500   -3.40224000    2.43311300 
H   1.29949900   -2.24945300    3.78195000 
N   7.64465500   -0.99415900   -0.08158200 
O   8.31720300   -1.14870800    0.93525700 
O   8.05663000   -0.49424100   -1.13027400 
C  -3.91584300   -1.77941800    3.83962600 
H  -4.92703400   -1.37113300    3.74651600 
H  -4.00104700   -2.86645100    3.74372300 
H  -3.50855800   -1.53072700    4.82010600 
C  -0.98362200    2.88188500   -4.18835100 
H  -0.02467300    3.11026900   -3.71922700 
H  -0.84200900    2.83476700   -5.27044500 
H  -1.67858300    3.70212300   -3.96626900 
H  -5.57951800   -0.16145700    0.96242900 
H  -3.16412900    2.68884600   -0.94076100 
H  -4.24297000   -3.43701500    0.33514900 
H  -2.86224200   -1.87052200   -3.29199300 
H  -1.93754200    0.97878900   -4.36762800 
H   3.61303200    5.09081900   -2.19425900 
H   3.48087700    1.19554300   -0.54057600 
H   1.25416400    4.34649700    1.36851600 
H  -1.19529900    1.32162000    2.98909500 
H   5.93590500   -0.97560600   -2.11963000 
H   6.33993800   -1.95724000    2.03077100 
H   3.50886900   -1.64520800   -2.04427000 
H   3.91832200   -2.62669900    2.11279700 
N  -3.96270600   -3.69123400   -2.89607300 
H  -4.07346600   -4.07003600   -3.82497300 
N  -0.49373400    3.16963700    3.83364000 
H  -0.90115000    3.11006300    4.75546100 
N   3.96283100    3.10639100   -1.41827000 
H   4.95386900    3.00210200   -1.58255200 
N  -5.17733000    2.85446200   -0.17726000 
H  -5.39003700    3.81834300   -0.38717200 
H  -4.98322300   -5.18373700   -1.71330100 
H   0.56108200    5.05199200    3.95214800 
H   1.02168100    4.47974200   -1.42232900 
H  -7.00697600    2.22131400    0.78048500 
H  -1.08642000   -0.30837700    1.62542000   
