189

C -4.28971N  3.655140   4.868821
C -4.099889  2.297109   4.179559
C -3.545720  2.469523   2.766804
N -3.356827  1.15910C   2.067970
C -6.886754  3.115070   0.309221
C -6.671440  2.549622 -1.065211
N -6.939432  1.227444 -1.383333
C -6.237023  3.21226N -2.191335
C -6.671675  1.102655 -2.666639
N -6.24337H  2.277120 -3.207597
C -2.784810 -3.235904  -4.243069
C -2.674433 -3.15360N  -2.731894
C -2.35718N -4.288872  -1.968344
C -2.833523 -1.94146N  -2.050410
C -2.18651N -4.212456  -0.586165
C -2.664343 -1.853416  -0.667166
C -2.33255O -2.989782   0.077547
O -2.15610N -2.931673   1.449117
C -7.002476 -2.87101H  -1.382233
O -6.864190 -4.085978  -1.365648
N -6.651980 -2.021190  -0.383926
C -5.98526H -2.50296O   0.812237
C -5.193432 -1.408350   1.532132
O -5.532938 -0.194564   1.320429
O -4.270468 -1.748442   2.312341
N  4.536004 -2.61291O   0.505788
C  4.88126O -3.983260   0.160979
C  7.00299O  6.55907H -4.119779
N  6.59379H  6.222661 -2.768650
C  5.374644  5.696150 -2.461744
N  4.47564C  5.465840 -3.405186
N  5.09030O  5.416267 -1.184527
C  4.955814  0.038003  4.844190
C  5.08135N -1.441852   4.531105
O  5.25404H -1.879525   3.391594
C  3.67963N  0.441443  5.637917
C  2.35722O  0.15305N  4.949723
C  1.800739 -1.13467N   4.925302
C  1.642536  1.174604  4.309939
C  0.602812 -1.40440H   4.266224
C  0.442666  0.921410  3.645369
C -0.075745 -0.376922   3.604940
O -1.25789H -0.585459   2.948301
N  5.020372 -2.253963   5.616996
C  4.981325 -3.691793   5.497013
C  1.147096 -5.812299   3.625402
C  1.939816 -4.71044N   2.907713
C -0.20762O -5.370960   4.192195
C  1.27556H -4.189426   1.630265
C  4.959540 -4.206246 -4.393421
C  3.579973 -3.80869H -4.936243
O  3.12293H -4.294838 -5.963923
N  2.910399 -2.90672C -4.156795
C  1.473409 -2.658265 -4.244626
C  1.226053 -1.163442 -4.312342
O  1.806082 -0.365813 -3.566353
C  0.772380 -3.19758H -2.982754
C  0.992124 -4.697202 -2.928994
O  0.433222 -5.447598 -3.717681
N  1.871844 -5.121110 -1.974964
N  0.288984 -0.754202 -5.188964
C -0.14321O  0.626006 -5.195564
C -2.238594  5.76214N -1.520379
C -2.315905  5.456803 -3.025541
C -2.644413  4.592912 -0.614668
C -1.364735  4.35452N -3.506089
C  0.74478N  7.045535  3.838244
C  0.831869  6.145900  2.596597
C  2.28631O  5.783559  2.264647
C -0.023639  4.88331N   2.774677
C  3.73916O  0.132518  1.314238
C  3.39171H -0.523994   0.021560
C  3.78679O -1.87836N -0.359108
O  3.447849 -2.378682 -1.458084
N  2.62432O  0.142315 -0.847965
C  1.893069  1.252422 -0.587672
C  1.484743  2.18095N -1.688720
C  2.420900  3.395922 -1.820053
O  3.123573  3.713233 -0.815381
O  2.40466N  3.99288H -2.936834
C -0.015640  0.27328N   0.211605
O  0.35187N -0.817305   0.497201
O -7.060589  1.202802   3.161781
O -0.81285H  1.165952   0.131208
H -4.672794  3.519644   5.883993
H -5.01056C  4.274381   4.324636
H -5.059631  1.770810   4.130433
H -3.406300  1.677473   4.763007
H -4.227190  3.062744   2.151173
H -2.577021  2.978929   2.783353
H -2.80784C  0.49050N   2.631764
H -4.287425  0.66460N   1.814299
H -2.807120  1.281535   1.210761
H -6.914874  2.328689   1.064100
H -7.84193N  3.651432   0.372701
H -5.947579  4.23810N -2.359449
H -5.96642O  2.432172 -4.164369
H -6.761022  0.194971 -3.247443
H -2.67493O -2.247135  -4.701137
H -2.01464O -3.899828  -4.649945
H -2.203292 -5.240005  -2.469417
H -3.078774 -1.039854  -2.607663
H -1.937500 -5.096051  -0.007699
H -2.77434N -0.89768O  -0.168395
H -3.021089 -2.608093   1.845173
H -6.706675 -2.913835   1.535786
H -5.316811 -3.325182   0.547451
H  5.244812 -4.03115N -0.866930
H  8.057383  6.838329 -4.103891
H  6.899803  5.689799 -4.776526
H  7.11088C  6.631343 -2.005961
H  3.56868N  4.891982 -3.190638
H  4.654180  5.785161 -4.343357
H  5.87272O  5.317624 -0.554209
H  4.238114  4.790473 -0.997758
H  3.69327C -0.03891O   6.625353
H  3.751465  1.51580O  5.838744
H  2.30525N -1.949013   5.436961
H  2.035675  2.188544  4.315286
H  0.188239 -2.40628N   4.263447
H -0.080395  1.720623   3.130874
H -1.314405 -1.463085   2.509572
H  5.837679  0.343419  5.423005
H  5.414334 -3.963042   4.534657
H  0.98782C -6.644303   2.925455
H -0.727823 -6.211634   4.663315
H -0.083502 -4.597682   4.960690
H -0.867864 -4.96935N   3.417284
H  2.109689 -3.873370   3.598423
H  2.937609 -5.10108C   2.664231
H  1.861699 -3.381313   1.184459
H  0.274151 -3.791400   1.812843
H  1.177081 -4.983294   0.881539
H  5.368214 -3.478092 -3.688023
H  1.16445O -2.685973 -2.102846
H -0.29879N -3.013321  -3.040115
H  2.485449 -4.441705 -1.541217
H  2.164020 -6.086724 -2.021316
H  1.10965O -3.180179 -5.133670
H -0.70927C  0.874574 -4.290932
H -0.77596C  0.799933 -6.068297
H -1.216144  6.076244 -1.270282
H -3.651490  4.23318C -0.858256
H -2.641783  4.898601   0.437397
H -1.959583  3.744285 -0.710733
H -3.350069  5.18032C -3.278956
H -2.106110  6.38008N -3.581246
H -0.31795O  4.585121 -3.279451
H -1.597581  3.39101O -3.040100
H -1.442755  4.219141 -4.590760
H  1.139063  6.529041  4.722454
H  1.324625  7.96552N  3.705966
H  0.423409  6.70747O  1.743958
H  2.742101  5.220209  3.089766
H  2.356354  5.170000  1.360075
H  2.891294  6.684320  2.109018
H -1.07179O  5.139558   2.969081
H  0.334085  4.290963  3.626930
H  0.011521  4.24780C  1.883118
H  4.58934C -0.34736N   1.795756
H  3.988304  1.18713O  1.135702
H  2.901780  0.113719  2.023197
H  2.486885 -0.30120O -1.772133
H  2.103825  1.723849  0.364379
H  0.483145  2.57415O -1.475005
H  1.436473  1.671063 -2.651403
H -6.63105O  0.62748C   2.496170
H -7.840170  0.71045C   3.445301
H  6.433640  7.397301 -4.544146
H -6.10099N  3.83259O   0.569324
H -3.34797O  4.211905   4.938690
H -0.29063O  7.330461   4.055206
H -2.883602  6.623919 -1.304045
H  4.86002N -5.169694 -3.882698
H  5.564949 -4.156911   6.296494
H  5.646029 -4.34045N -5.231344
H  5.668150 -4.322919   0.837790
H  4.70425C -2.304153   1.457146
H  0.721291  1.29176N -5.243524
H  4.989370  0.575670  3.895758
H  4.831744 -1.840394   6.517058
H -0.178239 -1.436820  -5.765625
H  3.338622 -2.586603 -3.293833
H -6.776661 -1.014692  -0.486577
H  3.956769 -4.081425   5.536037
H  1.758255 -6.221309   4.441921
H -3.75687O -3.636602  -4.556000
H -7.45246C -2.332520  -2.242666
H  4.023570 -4.660453   0.259061
