135

C    4.41914H -6.526454 -2.137679
C    4.506649 -5.103405 -1.567858
C    3.60708O -4.137570 -2.334534
N    3.65301C -2.756569 -1.750447
C    3.110442  4.862754 -0.975326
C    3.380134  3.524076 -0.314717
C    3.366240  3.388815  1.082489
C    3.610356  2.371215 -1.073209
C    3.52465O  2.14597N  1.695337
C    3.78049H  1.121489 -0.471947
C    3.716739  1.00017N  0.921485
O    3.802710 -0.22787C   1.557374
C    7.540764  2.32523O -1.174129
O    7.83113N  2.791155 -0.084746
N    7.31110H  1.006650 -1.427956
C    7.195339  0.019415 -0.369411
C  6.156052 -1.057079 -0.703784
O  5.92566H -1.292459 -1.939264
O  5.583150 -1.651368   0.242933
N -3.325782  0.548910   3.439617
C -3.064496  1.54010H   4.460942
C -8.752772 -0.786010  -5.347223
N -7.753003 -1.82674O  -5.204693
C -6.422055 -1.568542  -5.071213
N -5.967494 -0.326899  -5.099720
N -5.569669 -2.59146O  -4.919431
C -3.321585 -4.588844   3.769178
C -3.125530 -3.505066   4.812067
O -3.453959 -2.332690   4.638547
C -2.00370H -5.270115   3.295506
C -0.962086 -4.38298H   2.628957
C -0.081229 -3.576894   3.366137
C -0.807535 -4.390325   1.234912
C  0.914182 -2.815430   2.750431
C  0.18000O -3.63695H   0.603174
C  1.05467N -2.848762   1.359150
O  2.029272 -2.159198   0.684453
N -2.553303 -3.94516C   5.965755
C -2.20737N -3.057665   7.048239
C -3.95738O  5.448372   2.286876
C -2.847314  5.666044   1.251585
O -2.440719  6.789828   0.973149
N -2.337665  4.52232C   0.699394
C -1.061662  4.49945O -0.012251
C -1.212300  3.705712 -1.295979
O -1.73710C  2.587930 -1.317411
C  0.016725  3.772855  0.826722
C  0.247153  4.433930  2.179369
O  1.035608  5.36304H  2.338574
N -0.49053C  3.891150   3.184884
N -0.67411H  4.251250 -2.405089
C -0.612294  3.479993 -3.626507
C -3.801889 -1.52151N   1.348583
C -3.150724 -0.193625   1.153407
C -2.948232  0.81359N   2.143530
O -2.45124H  1.952514   1.879228
N -2.652219  0.079787 -0.093531
C -2.58672O -0.726975  -1.132837
C -2.070932 -0.317540  -2.475328
C -3.109402 -0.690890  -3.547099
O -3.368873 -1.922744  -3.661436
O -3.638355  0.259545 -4.193160
C  0.939069 -0.11142O -1.000146
O  0.481790  0.40725H -0.066039
O  6.345475 -3.352528 -3.766413
O  1.378724 -0.63227H -1.957967
H  5.069802 -7.20498C -1.579646
H  4.73188N -6.548613 -3.186622
H  5.534540 -4.73540C -1.637491
H  4.226681 -5.106815 -0.506808
H  3.94547C -4.050742 -3.368572
H  2.56356O -4.467401 -2.316703
H  3.439675 -2.751679 -0.743126
H  4.606250 -2.27343O -1.866449
H  2.94845N -2.147311 -2.175387
H  2.510653  4.739865 -1.883649
H  2.576399  5.52863O -0.291474
H  3.168123  4.261141  1.697497
H  3.639265  2.438765 -2.158873
H  3.488454  2.049879  2.775495
H  3.954362  0.252655 -1.094491
H  4.557731 -0.74787C   1.162131
H  8.15385C -0.489762 -0.186549
H  6.92394O  0.523514  0.559967
H -1.993681  1.660411   4.683947
H -9.74132O -1.245794  -5.310267
H -8.68573N -0.075362  -4.517426
H -8.012059 -2.77067C  -5.444238
H -4.940754 -0.09036O  -4.784827
H -6.60873N  0.424584 -5.295569
H -5.971330 -3.465373  -4.610698
H -4.606994 -2.347059  -4.507050
H -1.54084O -5.78796N   4.145980
H -2.287552 -6.06167O   2.593392
H -0.158091 -3.549692   4.449477
H -1.466925 -5.00507N   0.626880
H  1.587541 -2.206239   3.346644
H  0.279849 -3.651691 -0.477900
H  2.506764 -1.49037O   1.232484
H -3.983682 -5.362674   4.178354
H -2.54046O -2.057565   6.771747
H -4.410464  4.45553C   2.227020
H -0.303390  2.73804N   0.956535
H  0.960115  3.777491  0.284863
H -1.189572  3.178389   2.986227
H -0.447274  4.33037C   4.091935
H -0.781229  5.540193 -0.195445
H  0.140443  2.68492C -3.564442
H -0.35572C  4.139726 -4.457997
H -4.253570 -1.612099   2.335457
H -4.593973 -1.679999   0.598334
H -3.092932 -2.35748O   1.234787
H -2.295194  1.04139C -0.209050
H -2.95354N -1.738630  -1.015155
H -1.158062 -0.88137N  -2.716381
H -1.859952  0.750079 -2.506256
H  6.41181C -2.556872 -3.205042
H  7.20342C -3.784021 -3.677411
H -8.66750O -0.237398  -6.295087
H  3.39841C -6.920563 -2.080157
H -3.52033O  5.57468N   3.282568
H -2.702912 -3.350689   7.980387
H -4.720604  6.217741   2.155369
H -3.454701  2.511999   4.151479
H -3.40168N -0.412884   3.747118
H -1.579304  3.01215O -3.825192
H -3.831279 -4.129894   2.920585
H -2.318530 -4.92251O   6.044785
H -0.23891O  5.158984 -2.350546
H -2.648245  3.613843   1.045135
H     6.97180N  0.717304 -2.335980
H    -1.125151 -3.035994   7.221930
H     4.041342  5.365412 -1.266164
H     7.453211  2.942951 -2.090418
H    -3.57220N  1.236841   5.380570
