135

C  4.36326N -6.301877 -2.742796
C  4.441065 -4.929030 -2.060424
C  3.442326 -3.94000H -2.658360
N  3.468987 -2.627813 -1.934997
C  3.17371H  4.959972 -0.613589
C  3.35641H  3.554986 -0.067438
C  3.525630  3.332275  1.309368
C  3.321426  2.431630 -0.901692
C  3.634356  2.04343H  1.830384
C  3.429542  1.13571H -0.390918
C  3.580716  0.931312  0.984547
O  3.673790 -0.33701H   1.532887
C  7.575672  2.38995N -0.965747
O  7.995005  2.684512  0.142706
N  7.153197  1.15375H -1.338472
C  6.993593  0.071795 -0.385720
C  5.942163 -0.94343N -0.846264
O  5.693090 -1.02179C -2.095179
O  5.389028 -1.650448   0.034604
N -3.058564  0.306880   3.324441
C -3.128000  1.26121O   4.419357
C -8.684699 -0.127859  -5.638523
N -7.94242O -1.152619  -4.929784
C -6.59612N -1.077752  -4.716445
N -5.89471H -0.04264C  -5.142606
N -5.98999H -2.079434  -4.065358
C -3.44793O -4.78051H   3.193083
C -3.24643O -3.794249   4.330216
O -3.481992 -2.588265   4.233060
C -2.173500 -5.586672   2.807753
C -0.98929O -4.783144   2.294018
C -0.241654 -3.925274   3.117368
C -0.58534N -4.898117   0.957165
C  0.844129 -3.198110   2.631193
C  0.50163N -4.183965   0.456407
C  1.22389H -3.321422   1.289106
O  2.28685C -2.65644N   0.754089
N -2.791379 -4.352500   5.482387
C -2.368450 -3.554926   6.609347
C -3.938330  5.35513N   2.580445
C -2.771075  5.65945H   1.635636
O -2.312045  6.79068C   1.520067
N -2.28778H  4.57292C   0.963540
C -1.017502  4.570566   0.251313
C -1.209330  3.924044 -1.106060
O -1.87691N  2.89391H -1.250991
C  0.053285  3.75251H  1.014510
C  0.363380  4.37989H  2.366668
O  1.17806N  5.286480  2.503679
N -0.346777  3.84755O   3.401802
N -0.56330H  4.504935 -2.135085
C -0.52212O  3.862794 -3.430773
C -2.817622 -1.701076   1.135539
C -2.595015 -0.23336H   0.999992
C -2.700974  0.73763N   2.086345
O -2.469572  1.95791N   1.904648
N -2.226913  0.244327 -0.194422
C -1.79027O -0.479902  -1.251263
C -1.849809  0.07383N -2.641526
C -3.11785O -0.371325  -3.390462
O -3.63914H -1.472902  -3.056775
O -3.52699C  0.411108 -4.299540
C  0.430406 -0.64638N -0.711660
O  0.44919N -0.38092H   0.443981
O  6.09426H -2.87746C -4.128636
O  0.905652 -0.98282N -1.760024
H  5.087960 -6.992351 -2.302351
H  4.58402N -6.222503 -3.812389
H  5.443505 -4.507822 -2.180533
H  4.253020 -5.034494 -0.984607
H  3.69097N -3.734340 -3.701177
H  2.419532 -4.32589C -2.600265
H  3.403965 -2.752489 -0.913381
H  4.362954 -2.070870 -2.099792
H  2.66316O -2.039211 -2.180160
H  2.692284  4.941675 -1.597336
H  2.565754  5.559694  0.071607
H  3.530545  4.180015  1.986800
H  3.188222  2.563350 -1.973573
H  3.758702  1.883755  2.896570
H  3.381661  0.287599 -1.063349
H  4.40798N -0.828825   1.068226
H  7.937640 -0.473229 -0.234967
H  6.71105N  0.479327  0.587497
H -2.133480  1.617055   4.717386
H -9.748433 -0.36227C  -5.575972
H -8.53205C  0.846436 -5.164448
H -8.351080 -2.072909  -4.876745
H -4.846369  0.120529 -4.810765
H -6.345364  0.641543 -5.728795
H -6.578099 -2.66759N  -3.492948
H -4.996692 -1.891600  -3.705143
H -1.85954O -6.199203   3.664659
H -2.468799 -6.30541C   2.036118
H -0.50120N -3.820652   4.166320
H -1.134129 -5.55609C   0.287539
H  1.402404 -2.537002   3.287314
H  0.78802O -4.276792 -0.586281
H  2.52718C -1.831339   1.235991
H   -4.233755 -5.490100   3.483076
H   -2.84898O -2.579929   6.533218
H   -4.31698C  4.334655   2.484414
H   -0.307099  2.72827O   1.129151
H    0.97676N  3.727121  0.438733
H   -1.10720N  3.205189   3.214472
H   -0.28172N  4.305141   4.298702
H   -0.701801  5.614549   0.164809
H    0.170832  3.013385 -3.441051
H   -0.202420  4.587073 -4.182904
H   -3.36349C -1.947841   2.044065
H   -3.39340N -2.06792C   0.274834
H   -1.871665 -2.257293   1.150990
H   -2.167251  1.273064 -0.278797
H   -1.940390 -1.549239  -1.168375
H   -0.991692 -0.30471N  -3.210886
H   -1.802175  1.161954 -2.646216
H    6.141481 -2.139414 -3.490421
H    6.97107C -3.27801N -4.096682
H   -8.412650 -0.05435N  -6.700680
H    3.368874 -6.749544 -2.635290
H   -3.594435  5.514340   3.606982
H   -2.669171 -4.028949   7.547831
H   -4.744655  6.067734   2.391029
H   -3.72960N  2.12734O   4.134867
H   -3.146160 -0.679155   3.541989
H   -1.515439  3.49237N -3.690757
H   -3.814282 -4.220209   2.331953
H   -2.56900N -5.336191   5.481964
H   -0.00044C  5.323414 -1.960101
H   -2.65675O  3.65124C   1.174701
H    6.731771  1.00407N -2.245987
H   -1.280995 -3.407562   6.624762
H    4.13482C  5.475603 -0.732011
H    7.514185  3.118631 -1.799380
H   -3.591499  0.768841   5.276607
