161

 C          3.382791   -1.237154   -3.973872
 C          2.025578   -1.437686   -4.229045
 C          1.067147   -0.484644   -3.857046
 C          1.509323    0.687054   -3.228735
 C          2.865609    0.897730   -2.973499
 C          3.806793   -0.065083   -3.344898
 C         -0.396184   -0.678179   -4.200796
 C         -0.857911    0.118083   -5.440217
 C          1.052834   -3.312966   -1.244714
 C          0.873626   -4.256142   -2.256347
 C         -0.275487   -5.049124   -2.291636
 C         -1.242085   -4.902525   -1.297217
 C         -1.049867   -3.973458   -0.272937
 C          0.089813   -3.162932   -0.238792
 C          0.279232   -2.170084    0.900223
 C          0.344150   -0.698532    0.468353
 O          1.445746   -2.415813    1.668462
 O          1.711705   -2.836183    4.412011
 C          2.835041   -2.002719    4.593473
 C          2.477904   -0.514296    4.571433
 O          3.680385   -1.984407    0.411649
 C          4.300267   -3.128828    0.078000
 C          4.029331   -4.331646    0.769194
 C          4.712747   -5.501936    0.453229
 C          5.683180   -5.515001   -0.551111
 C          5.953854   -4.336599   -1.248588
 C          5.274608   -3.158581   -0.943205
 N          5.034007    0.451622    0.098760
 C          5.789836    0.216105    1.175981
 N          5.495157   -0.829544    1.945669
 C          6.425145   -1.394914    2.903568
 N          6.834925    1.022792    1.460699
 O          6.944240    2.802206   -0.723466
 C          7.868500    3.383582   -1.302031
 C          8.644491    4.499017   -0.645389
 N          8.242589    3.061193   -2.556239
 Cl        -1.241316   -0.124748   -0.270400
 C          3.397998    4.966403   -1.665086
 C          2.122193    4.668947   -2.149617
 C          1.283631    3.806392   -1.438891
 C          1.723800    3.250565   -0.235198
 C          2.999519    3.544621    0.251239
 C          3.839558    4.402062   -0.464880
 O         -1.762084    2.473449   -2.512551
 O         -4.627584    3.170572   -2.889568
 C         -5.388461    3.623692   -2.056322
 C         -5.225772    3.370741   -0.558315
 N         -5.248689    1.948143   -0.294091
 C         -6.391560    1.238324   -0.444961
 C         -6.352992   -0.198946    0.074411
 N         -5.173770   -0.529777    0.834979
 C         -4.975182   -0.063016    2.087576
 C         -3.648927   -0.498216    2.706571
 N         -3.200658    0.578973    3.562711
 C         -1.876533    0.850534    3.704456
 C         -1.558758    2.179444    4.378890
 N         -0.180842    2.222875    4.882952
 C          0.550051    3.309241    4.207422
 C         -0.549042    4.303281    3.819425
 C         -1.688005    3.368869    3.385610
 C         -3.891684    3.934703   -0.069547
 C         -3.725626    5.437946   -0.272957
 C         -2.319577    5.859761    0.127786
 O         -7.398410    1.714341   -0.960354
 O         -5.744514    0.694674    2.678133
 C         -3.764904   -1.830283    3.483510
 C         -3.953495   -3.049295    2.585822
 O         -3.799251   -3.005461    1.359616
 N         -4.277544   -4.198313    3.220705
 O         -0.999630    0.089052    3.297112
 O         -4.897331   -3.938509   -1.204145
 C         -4.917574   -2.844014   -2.020080
 C         -3.901037   -1.879068   -2.012207
 C         -4.002933   -0.754455   -2.834776
 C         -5.092614   -0.587521   -3.689676
 C         -6.084399   -1.574162   -3.720369
 C         -6.005604   -2.694784   -2.892324
 H         -4.442907    1.508764    0.121179
 H         -3.918212    1.229036    3.863083
 H         -3.221005   -0.002431   -2.811010
 H         -3.030478   -2.018401   -1.380286
 H         -4.309673   -3.773101   -0.447371
 H         -6.780506   -3.454793   -2.896052
 H         -6.938136   -1.464080   -4.383483
 H          0.293526    3.571915   -1.820302
 H          1.076419    2.577346    0.318940
 H          3.340403    3.101962    1.182784
 H          4.837896    4.617173   -0.094298
 H          4.048283    5.636144   -2.222234
 H          4.709143   -1.408635    1.550146
 H          7.224099    1.000093    2.388530
 H          6.969527    1.852793    0.887666
 H          4.376521   -0.294642   -0.170382
 H          5.229161    1.251547   -0.485415
 H          1.450344   -2.721479    3.476635
 H          3.280538   -2.275403    5.558900
 H          3.602344   -2.200069    3.825603
 H          4.485154   -6.414704    0.998497
 H          3.267591   -4.325125    1.542966
 H          2.295542   -2.240916    1.144700
 H          5.479898   -2.242788   -1.491063
 H          6.701262   -4.334360   -2.039255
 H         -6.425153   -0.871068   -0.782959
 H         -4.539745   -1.237788    0.485908
 H         -6.069739    3.844994   -0.041891
 H         -3.087319    3.419296   -0.607585
 H         -3.787823    3.690840    0.994976
 H         -2.163837    6.935092   -0.008536
 H         -1.567487    5.336082   -0.470743
 H         -2.123692    5.631928    1.181590
 H         -2.270321    2.318350    5.208754
 H         -2.677431    3.834332    3.417215
 H         -1.510851    3.021235    2.361399
 H         -0.850718    4.892492    4.692860
 H         -0.238550    4.994675    3.031119
 H          1.296452    3.749807    4.878516
 H          1.078763    2.969537    3.301271
 H         -2.901410   -0.639237    1.924165
 H         -4.573226   -1.775329    4.222089
 H         -2.826783   -1.966950    4.034549
 H         -4.334917   -4.256486    4.225048
 H         -4.341572   -5.048696    2.680419
 H         -0.592187   -1.744761   -4.355897
 H         -1.006373   -0.375513   -3.345502
 H          0.783102    1.444290   -2.952296
 H          3.180612    1.818859   -2.493088
 H          4.864352    0.096206   -3.148961
 H          4.105248   -1.996419   -4.259941
 H          1.700965   -2.349998   -4.722616
 H          6.213617   -6.431491   -0.792665
 H         -5.170593    0.295782   -4.314666
 H         -4.475885    5.987715    0.310024
 H         -3.894445    5.696976   -1.326007
 H         -7.256005   -0.323265    0.680211
 H         -1.798276   -3.870394    0.505548
 H         -2.147663   -5.502316   -1.320967
 H         -0.414249   -5.776175   -3.087053
 H          1.639400   -4.372799   -3.017118
 H          1.949991   -2.703721   -1.232902
 H         -0.563759   -2.266995    1.590774
 H          1.107164   -0.517041   -0.288280
 H          0.483853   -0.073088    1.346583
 H          5.978654   -2.302650    3.308217
 H          7.384931   -1.658003    2.442382
 H          6.608859   -0.719606    3.749732
 H          3.368143    0.113461    4.702877
 H          2.008419   -0.259283    3.617719
 H          1.771190   -0.285177    5.375491
 H          9.458221    4.888818   -1.260712
 H          7.956043    5.315250   -0.408715
 H          9.058880    4.138545    0.299879
 H         -1.909019   -0.096242   -5.658976
 H         -0.762181    1.193710   -5.266115
 H         -0.264100   -0.142130   -6.322759
 H         -6.238251    4.262271   -2.364609
 H          0.261468    1.323988    4.711282
 H          1.781800    5.104221   -3.084591
 H          7.726140    2.345172   -3.047259
 H          8.957863    3.566554   -3.052824
 H         -1.689362    1.711513   -1.922600
 H         -2.712013    2.576512   -2.696975
