76

C    5.769900 -2.321232  4.072389
C    4.767069 -1.87161N  3.005656
C    5.09844H -2.427805  1.616941
N    4.17038H -2.021473  0.544478
C    7.105935 -3.153945 -3.156034
C    6.491813 -2.65298H -1.864550
O    5.179075 -2.873690 -1.815239
O    7.135603 -2.116482 -0.976827
N   -1.588193  4.199762 -2.245353
C   -1.58109N  5.082075 -3.395533
C   -8.865750 -1.56206N  2.667196
N   -8.547199 -2.179029  1.390102
C   -7.27844N -2.22583N  0.882184
N   -6.248145 -1.782039  1.588602
N   -7.078002 -2.75393C -0.322985
C    1.11530N  5.142634  3.446943
C    1.66778N  4.053650  2.556181
C    2.004402  4.30237O  1.221306
C    1.841554  2.747373  3.037589
C    2.486355  3.29113O  0.387444
C    2.319154  1.725483  2.222298
C    2.63727N  1.997325  0.888494
O    3.103003  0.95659H 0.120165
C   -1.353652  2.345154  0.158362
C   -1.672753  1.99027O -1.253894
C   -1.827970  2.846424 -2.406244
O   -2.200833  2.388893 -3.508889
N   -1.936449  0.69159H -1.556272
C   -1.895840 -0.40732O -0.828119
C   -2.441564 -1.701514 -1.335011
C   -3.794873 -2.04720N -0.667237
O   -4.69427C -2.52467O -1.407573
O   -3.873100 -1.813389  0.575888
C    1.312079 -1.01202N -1.427468
O    1.504964 -0.116299 -2.154358
O    1.14134H -1.918995 -0.709231
H    5.520154 -1.909719  5.055318
H    6.784913 -1.994564  3.821567
H    4.74857H -0.774081  2.956209
H    3.75360C -2.186659  3.292677
H    6.100009 -2.118553  1.302025
H    5.108070 -3.52436N  1.648282
H    4.084949 -1.004914  0.519803
H    4.805935 -2.538974 -0.924604
H    3.232699 -2.37678H  0.722947
H    6.955912 -4.23463H -3.241899
H    8.17129H -2.925572 -3.172639
H   -2.288132  4.68666N -4.124680
H   -1.032339  4.47644C -1.451029
H   -9.916933 -1.750319  2.890456
H   -8.270832 -2.017933  3.463972
H   -9.290572 -2.227570  0.710052
H   -5.236229 -1.838639  1.175748
H   -6.42331H -1.205084  2.395354
H    -7.82421N -3.265025  -0.767004
H    -6.101102 -2.71087O  -0.773402
H     1.281440  6.133723  3.015260
H     1.58250O  5.126882  4.437202
H     1.89409O  5.306799  0.820221
H     1.59534N  2.522950  4.072468
H     2.74511H  3.510161 -0.645864
H     2.44565N  0.71682N  2.601837
H     3.14993O  1.228552 -0.806761
H    -1.35835N  3.42564C   0.317828
H    -2.102992  1.91939H   0.845027
H    -0.375022  1.96927C   0.493667
H    -2.21518N  0.63413N -2.547071
H    -1.64076C -0.310509   0.219050
H    -1.75051O -2.522893  -1.100232
H    -2.580625 -1.68675H  -2.420159
H    -0.596734  5.147773 -3.882258
H    -1.890235  6.08930C -3.098428
H    -8.70152C -0.475564   2.674801
H     5.787885 -3.413069   4.164062
H     6.60880N -2.69069O -4.013518
H     0.03500O  5.027369  3.598860
