95

C     7.163194 -3.311841 -2.245233
C     6.055102 -2.484183 -1.572779
C     5.999970 -1.038521 -2.087987
N     5.003973 -0.156149 -1.452340
C     7.095743  4.079225 -2.555232
C     6.802792  2.634901 -2.184108
O     5.503460  2.368507 -2.204886
O     7.680215  1.832374 -1.901943
N    -1.527013  1.082769   3.857467
C    -2.159332  2.037647   4.761151
C    -7.466407 -4.829531  -2.896805
N    -6.560005 -4.712790  -1.766909
C    -5.422954 -3.955873  -1.788025
N    -5.101220 -3.228971  -2.846534
N    -4.636665 -3.946420  -0.709376
C     1.834274 -4.138434   4.732236
C     2.444626 -3.034001   3.903114
C     2.939661 -1.865845   4.499721
C     2.490102 -3.119999   2.505294
C     3.412445 -0.801521   3.732790
C     2.959576 -2.063907   1.724327
C     3.399705 -0.876927   2.332807
O     3.806210  0.194282  1.598433
C    -5.122488  4.513131   2.334203
C    -4.306815  4.964433   1.124202
O    -4.461882  6.074880   0.624252
N    -3.396165  4.058967   0.651927
C    -2.510658  4.389458 -0.446924
C -2.413009  3.283571 -1.475488
O -2.285941  2.094271 -1.162994
N -2.423554  3.708717 -2.753600
C -2.183856  2.823369 -3.873971
C -0.501745 -1.259523   2.415388
C -1.168903 -0.095341   1.766210
C -1.936709  0.931627   2.576980
O -2.883999  1.544234   2.085630
N -1.159098  0.074129   0.486684
C -0.371387 -0.712059  -0.451764
C -1.056813 -0.815106  -1.803838
C -2.314562 -1.690159  -1.770761
O -2.522613 -2.375436  -0.723635
O -3.040948 -1.663453  -2.805326
C  1.148882 -0.185216 -0.497541
O  1.476423  0.571397  0.451435
O  1.811374 -0.685028 -1.417341
H  7.186728 -4.335754 -1.858462
H  8.148148 -2.864655 -2.071781
H  6.217580 -2.469602 -0.486344
H  5.081399 -2.967423 -1.731806
H  6.975159 -0.555207 -1.963734
H  5.792423 -1.042384 -3.165722
H  5.097215 -0.164609 -0.435875
H  5.321283  1.391787 -1.916298
H  4.039446 -0.439691 -1.643589
H  6.671603  4.307093 -3.537852
H  8.172434  4.248572 -2.564249
H -3.234343  2.037728   4.578462
H -0.654287  0.660212   4.140693
H -8.351801 -5.380025  -2.575600
H -7.792352 -3.837173  -3.221882
H -6.572768 -5.460982  -1.090613
H -4.229842 -2.561998  -2.821645
H -5.589549 -3.383643  -3.713925
H -5.025040 -4.263850   0.165274
H -3.767631 -3.316121  -0.701231
H  2.319647 -4.225773   5.709818
H  1.916955 -5.108545   4.232145
H  2.942419 -1.781840   5.584799
H  2.140655 -4.026541   2.015196
H  3.778368  0.108725  4.197852
H  2.971093 -2.134716   0.640905
H  3.043715  0.429416  0.990869
H -4.893232  3.493308   2.652297
H -2.879339  5.325949 -0.872532
H -3.285087  3.156044   1.099936
H -1.113115  2.699430 -4.073138
H -2.664278  3.229698 -4.766501
H -2.519394  4.697648 -2.926057
H -0.810591 -1.369082   3.454584
H -0.772635 -2.174832   1.879771
H  0.587454 -1.157157   2.358737
H -1.657697  0.896265   0.095816
H -0.285948 -1.719891  -0.043078
H -0.328379 -1.254607  -2.491927
H -1.320366  0.168496 -2.197603
 1 -1.779491  3.053595   4.607177
 1 -1.963897  1.733969   5.790791
 1 -6.184402  4.588370   2.086513
 1 -4.929361  5.205997   3.157906
 1 -2.609925  1.842791 -3.654894
 1 -7.023713 -5.358214  -3.752159
 1  7.012869 -3.368398 -3.329515
 1 -1.486611  4.574716 -0.085637
 1  6.619676  4.751160 -1.834229
 1  0.766026 -3.964502   4.920315
