189

C   -4.247174  4.084489   4.589014
C   -4.201509  2.701097   3.926948
C   -3.680022  2.805182   2.497021
N   -3.640352  1.478898   1.801206
C   -6.545207  3.731830 -0.146059
C   -6.024413  2.832445 -1.226105
N   -6.828194  1.897047 -1.856209
C   -4.761093  2.797938 -1.768660
C   -6.065351  1.323194 -2.763475
N   -4.799411  1.826108 -2.751236
C   -2.739454 -3.031915  -4.347504
C   -2.820208 -2.956442  -2.836002
C   -2.461336 -4.050651  -2.034211
C   -3.212220 -1.782455  -2.184531
C   -2.432596 -3.958244  -0.642648
C   -3.201230 -1.679655  -0.792798
C   -2.780727 -2.762751  -0.010932
O   -2.683361 -2.668176   1.365997
C   -7.100765 -2.238166  -1.806802
O   -6.926169 -3.446219  -1.849423
N   -6.963235 -1.455190  -0.703938
C   -6.475828 -1.980202   0.559418
C   -5.644176 -0.948505   1.327475
O   -5.906800  0.285256   1.113163
O   -4.759875 -1.340453   2.126843
N    4.519072 -3.009039   0.840469
C    4.481726 -4.436741   0.612733
C    7.892123  5.806030 -3.561257
N    6.965166  6.079634 -2.477860
C    5.690431  5.607425 -2.430190
N    5.198802  4.881942 -3.424473
N    4.921188  5.891773 -1.372427
C    4.593952 -0.381058   5.265410
C    4.610766 -1.867236   4.963059
O    4.874144 -2.328698   3.853731
C    3.215647  0.161343  5.748956
C    2.036104 -0.018718   4.804974
C    1.233095 -1.167859   4.838067
C    1.675934  0.987831  3.896820
C    0.121440 -1.316584   4.006125
C    0.571775  0.854535  3.055742
C   -0.213608 -0.301892   3.105183
O   -1.312469 -0.367507   2.280053
N    4.306187 -2.651868   6.031575
C    4.220663 -4.088339   5.939898
C    0.350044 -5.864693   3.803626
C    1.283067 -4.877200   3.086602
C   -0.963780 -5.252293   4.304448
C    0.729394 -4.333204   1.766232
C    4.869488 -4.723739 -3.922207
C    3.594062 -4.161240 -4.562631
O    3.191181 -4.558962 -5.650655
N    2.939829 -3.224582 -3.810376
C    1.543034 -2.854910 -4.039186
C    1.410232 -1.343341 -4.104902
O    1.892975 -0.601230 -3.244199
C  0.699363 -3.311545 -2.835876
C  0.782804 -4.820218 -2.753444
O  0.209309 -5.527900 -3.574059
N  1.561132 -5.296250 -1.741337
N  0.652426 -0.851666 -5.107235
C  0.316222  0.553785 -5.125433
C -1.547833  5.909443 -1.644088
C -1.929120  5.250174 -2.980216
C -2.057521  5.190547 -0.391045
C -1.219494  3.918222 -3.254921
C  1.145709  6.976111  3.911949
C  1.219810  6.099400  2.654270
C  2.669693  5.741336  2.298055
C  0.369548  4.831582  2.815457
C  4.636962 -0.072731   1.289897
C  3.888853 -0.774535   0.206853
C  3.858683 -2.180482 -0.036766
O  3.266099 -2.698565 -1.033121
N  3.107567 -0.005872 -0.614412
C  2.854245  1.282457 -0.510529
C  2.007207  2.047820 -1.475161
C  2.731535  3.345343 -1.876466
O  3.023915  4.136665 -0.929962
O  3.004879  3.507259 -3.098680
C -0.734359  0.241818 -0.485930
O  0.002814 -0.656069 -0.509134
O -7.240234  2.030123   2.793576
O -1.462313  1.166039 -0.483025
H -4.603219  4.005234   5.619718
H -4.930624  4.751768   4.053875
H -5.206556  2.268146   3.913715
H -3.550733  2.030881   4.503550
H -4.327445  3.450047   1.898131
H -2.667345  3.219867   2.475207
H -3.074134  0.783223   2.306671
H -4.621526  1.043575   1.625949
H -3.197135  1.573470   0.883618
H -6.791046  3.181010   0.768143
H -7.457481  4.237636 -0.480361
H -3.868478  3.365493 -1.566390
H -4.040067  1.567634 -3.361879
H -6.371724  0.546305 -3.450134
H -2.421964 -2.074073  -4.774504
H -2.026721 -3.802029  -4.657091
H -2.146070 -4.973876  -2.510728
H -3.525304 -0.920337  -2.769431
H -2.128753 -4.804482  -0.036050
H -3.513158 -0.756066  -0.320099
H -3.541031 -2.276416   1.713425
H -7.305556 -2.288552   1.214421
H -5.880543 -2.873766   0.364317
H  4.793145 -4.663731 -0.409444
H  8.871584  6.199410 -3.286799
H  7.997679  4.727333 -3.715948
H  7.214570  6.788256 -1.806648
H  4.246781  4.377696 -3.322523
H  5.754027  4.728707 -4.250141
H  5.394261  6.205343 -0.537183
H  4.063062  5.262256 -1.219027
H  2.968267 -0.294645   6.715807
H  3.346047  1.229973  5.953730
H  1.467852 -1.964401   5.538777
H  2.264898  1.900489  3.845732
H -0.489310 -2.211765   4.063583
H  0.311943  1.643876  2.357788
H -1.619424 -1.289427   2.109255
H  5.343795 -0.162590   6.036652
H  4.326884 -4.359055   4.889776
H  0.123711 -6.698667   3.124882
H -1.584463 -6.003104   4.804702
H -0.772645 -4.452159   5.030657
H -1.557340 -4.826986   3.488918
H  1.513313 -4.039133   3.758326
H  2.241413 -5.377889   2.893957
H  1.432332 -3.637867   1.298392
H -0.214414 -3.798078   1.903939
H  0.543804 -5.141888   1.050436
H  5.252002 -4.101190 -3.109334
H  1.076818 -2.822599 -1.937165
H -0.341502 -3.028130  -2.978322
H  2.176570 -4.655640 -1.248764
H  1.773306 -6.283453 -1.744772
H  1.220023 -3.348657 -4.958841
H -0.405707  0.806294 -4.339020
H -0.116978  0.809787 -6.094789
H -0.453966  5.992787 -1.590182
H -3.153518  5.176298 -0.362918
H -1.714280  5.698789   0.515798
H -1.700167  4.156084 -0.339267
H -3.018086  5.108363 -3.018584
H -1.689426  5.947456 -3.792671
H -0.131386  4.044971 -3.281627
H -1.441174  3.165283 -2.490332
H -1.524653  3.507204 -4.224284
H  1.550602  6.444838  4.782428
H  1.722860  7.899228  3.789634
H  0.802911  6.676273  1.815890
H  3.135748  5.165736  3.108782
H  2.720527  5.142867  1.382200
H  3.272111  6.646176  2.151794
H -0.676659  5.077703   3.033122
H  0.740736  4.212466  3.641712
H  0.394574  4.225650  1.903260
H  5.307959 -0.746401   1.821079
H  5.242505  0.749025  0.873776
H  3.967308  0.381652  2.037721
H  2.688513 -0.519494 -1.405153
H  3.295356  1.819859  0.317777
H  1.066628  2.356799 -0.990893
H  1.778601  1.451964 -2.357876
H -6.933633  1.316145   2.199751
H -8.186474  2.104468   2.620973
H  7.588977  6.275368 -4.506435
H -5.810406  4.504635   0.102538
H 	 -3.258358  4.556766   4.612727
H     0.112620  7.256283  4.145895
H    -1.931493  6.937669 -1.636796
H     4.640349 -5.718219 -3.526123
H     5.016494 -4.580278   6.511722
H     5.632780 -4.840512 -4.694104
H     5.179545 -4.918158   1.303319
H     4.667889 -2.700212   1.793901
H     1.210408  1.159568 -4.961688
H     4.898095  0.133518  4.352386
H     4.138597 -2.210315   6.922301
H     0.267020 -1.480736 -5.794316
H     3.295872 -2.978099 -2.885915
H    -7.072819 -0.448550  -0.778092
H     3.254060 -4.451457   6.304800
H     0.883112 -6.307734   4.656066
H    -3.710382 -3.282675  -4.792549
H    -7.414156 -1.647408  -2.691801
H     3.487047 -4.876769   0.768963
