166

C    -4.962735  3.602795 -5.927359
C    -5.195744  2.618230 -4.773093
C    -3.906367  1.900316 -4.376139
N    -4.072121  1.054495 -3.159601
C    -3.425685 -4.892449   1.704553
C    -4.106783 -3.545566   1.666778
C    -5.140343 -3.226588   2.562026
C    -3.714585 -2.560149   0.755404
C    -5.772590 -1.987839   2.530865
C    -4.316962 -1.301682   0.726094
C    -5.377277 -1.014352   1.598729
O    -6.046734  0.165760   1.564947
C    -7.847503 -3.525313  -0.459860
O    -8.439323 -3.348813   0.593975
N    -7.503260 -2.556613  -1.346702
C    -7.655114 -1.135961  -1.076641
C    -6.500515 -0.338299  -1.701548
O    -6.074542 -0.750844  -2.835020
O    -6.057529  0.667000 -1.092112
N     1.139946  1.942680  3.585891
C     1.538617  1.697388  4.968404
C     8.791025 -1.108119 -3.604756
N     7.875284 -0.020704 -3.272400
C     6.549650 -0.161714 -3.010169
N     5.945705 -1.333754 -3.018796
N     5.832297  0.945834 -2.741397
C     1.668385  6.361870  0.926833
C     1.156410  5.974884  2.313180
O     1.244876  4.841317  2.796864
C     0.545423  6.886996 -0.029306
C    -0.550151  5.896586 -0.356427
C    -1.672545  5.761234   0.475675
C    -0.459185  5.056480 -1.475310
C    -2.626207  4.770751   0.251156
C    -1.410545  4.062154 -1.711324
C    -2.476277  3.880390 -0.818853
O    -3.353839  2.840762 -0.959088
N     0.588429  6.990799  2.996796
C     0.048242  6.789517  4.322479
C     2.962512 -2.594816   5.558254
C     2.132681 -3.520829   4.661073
O     2.029477 -4.720976   4.877940
N     1.501394 -2.880957   3.629166
C     0.488872 -3.493502   2.793308
C     0.896011 -3.546496   1.328177
O  1.472456 -2.611402   0.760400
C -0.805825 -2.638819   2.790113
C -1.654788 -2.611167   4.066084
O -1.653367 -3.477821   4.926524
N -2.458471 -1.496082   4.143553
N  0.427703 -4.620324   0.646666
C  0.652465 -4.738432 -0.774268
C  0.106528  2.577695  0.980851
C  0.734477  1.278133  1.267311
C  1.256231  0.971109  2.666308
O  1.729051 -0.142789   2.899332
N  0.849514  0.316845  0.411828
C  0.489403  0.386802 -1.017719
C  1.168373 -0.724562 -1.807435
C  2.661624 -0.552235 -2.112867
O  3.208384  0.585876 -1.924058
O  3.242620 -1.563704 -2.587491
C -1.072868  0.475123 -1.263445
O -1.781183  0.798180 -0.275588
O -7.078771 -0.166414  -5.366917
O -1.412107  0.308532 -2.455853
N  2.471155  5.322910  0.324742
C  3.816349  5.506158  0.130286
O  4.386404  6.564354  0.378180
C  4.559604  4.308736 -0.457805
C  4.332641  2.953379  0.248041
C  4.583787  3.008946  1.753510
O  2.998230  2.489392  0.021854
C  2.028640 -5.292721 -1.081081
O  2.532250 -6.158516 -0.362873
N  2.610107 -4.821494 -2.209668
C  3.889854 -5.369884 -2.630276
C  5.051731 -4.567117 -1.995667
O  5.945722 -4.056317 -2.682103
N  4.980802 -4.451511 -0.654779
C  5.764511 -3.477912   0.078859
C  4.000230 -5.393397 -4.152642
H -5.896117  4.102544 -6.200855
H -4.590534  3.089652 -6.821400
H -5.947697  1.871394 -5.053873
H -5.582070  3.160899 -3.900802
H -3.553953  1.250058 -5.182671
H -3.110089  2.618261 -4.156821
H -4.385428  1.620374 -2.359155
H -4.815283  0.297195 -3.227501
H -3.152577  0.642597 -2.880756
H -2.667340 -4.974135   0.918870
H -2.933376 -5.069870   2.668962
H -5.472486 -3.971822   3.280825
H -2.917514 -2.773902   0.045439
H -6.605267 -1.767810   3.190596
H -3.979601 -0.550521   0.022433
H -6.016889  0.520635   0.638294
H -8.592461 -0.750367  -1.505656
H -7.698582 -0.976792   0.000301
H  2.625044  1.591670  5.057792
H  9.685240 -0.680373 -4.060112
H  9.084745 -1.695816 -2.726747
H  8.287853  0.845778 -2.961456
H  4.904039 -1.379980 -2.897829
H  6.418388 -2.232556 -2.941557
H  6.149798  1.831207 -3.103833
H  4.825004  0.835299 -2.486568
H  0.107324  7.791051  0.409988
H  1.055260  7.204901 -0.943908
H -1.790833  6.427775   1.326208
H  0.379587  5.166558 -2.158293
H -3.477846  4.647092   0.912413
H -1.310688  3.387169 -2.556369
H -2.879574  2.003116 -0.683368
H  2.371534  7.192083  1.070119
H  0.839162  6.636863  5.065364
H  3.174384 -1.627199   5.095822
H -0.539532 -1.614222   2.513773
H -1.473469 -2.995045   2.000162
H -2.723537 -1.039235   3.278433
H -3.217789 -1.586669   4.806485
H  0.291248 -4.488013   3.203223
H -0.085491 -5.434210  -1.188508
H  0.664488  3.382475  1.454162
H  0.006322  2.770174 -0.080103
H -0.905513  2.561607   1.398791
H  1.240878 -0.574269   0.766552
H  0.871730  1.345390 -1.383267
H  0.642099 -0.781473 -2.765177
H  1.043252 -1.684310 -1.303793
H -6.900568 -0.424209  -4.440041
H -6.601429 -0.830496  -5.878991
H  8.321309 -1.774659 -4.332088
H -4.234747  4.376468 -5.657380
H  2.407735 -2.429938   6.487414
H -0.538333  7.664384   4.607802
H  3.897627 -3.096590   5.815008
H  1.207922  2.539821  5.575830
H  0.943866  2.901523  3.313787
H  0.489168 -3.768581 -1.245838
H  0.628591  7.924180  2.617648
H  0.195035 -5.455629   1.164166
H  1.666216 -1.893610   3.483989
H -6.948574 -2.787169  -2.160339
H -0.600175  5.910577   4.330891
H -4.139184 -5.712214   1.557845
H -7.538945 -4.531080  -0.812720
H  1.070986  0.779060  5.329534
H  4.964119 -5.807368 -4.454750
H  3.198924 -6.003929 -4.576365
H  3.932455 -4.382195 -4.563756
H  2.107174  4.388093  0.178929
H  4.266326  4.199575 -1.509845
H  5.619840  4.574849 -0.433056
H  5.035216  2.237892 -0.200999
H  3.844495  3.651991  2.240147
H  4.500853  2.005725  2.181441
H  5.582481  3.400200  1.972991
H  3.017209  1.824240 -0.707164
 H  2.383481 -3.883508 -2.533250
 H  3.926556 -6.386814 -2.227523
 H  4.240261 -4.953426 -0.176551
 H  5.350535 -2.468958 -0.032554
 H  5.765845 -3.742367   1.137696
 H  6.793814 -3.479093 -0.287087
