313

C1	3.204141	-5.625135	3.651219
C2	2.604092	-6.525053	2.578266
O3	1.395838	-6.581126	2.341734
N4	3.509132	-7.246353	1.856201
C5	0.792041	-4.195793	-8.089355
C6	0.872291	-4.718096	-6.644969
C7	-0.425190	-5.387049	-6.180255
C8	-0.458840	-5.802545	-4.693366
O9	0.606613	-5.894704	-4.047441
O10	-1.637732	-6.038970	-4.236826
C11	-5.094177	-6.406330	-0.594806
C12	-3.890281	-7.160570	-1.199151
C13	-2.532671	-6.663853	-0.776191
C14	-1.931678	-6.602278	0.456763
N15	-1.599823	-6.188416	-1.683374
C16	-0.489869	-5.840419	-1.039561
N17	-0.662403	-6.085160	0.266254
C18	-3.152544	-3.070171	-4.384210
C19	-2.192949	-2.169147	-5.150314
O20	-2.101227	-2.225134	-6.380245
N21	-1.438832	-1.303553	-4.401072
C22	-0.486941	-0.394778	-5.021566
C23	0.952359	-0.744558	-4.607923
O24	1.246949	-0.902231	-3.413531
C25	-0.798719	1.088912	-4.679866
C26	0.058485	2.060497	-5.463236
C27	-0.244128	2.367604	-6.798765
C28	1.185073	2.657225	-4.879817
C29	0.566214	3.229671	-7.539813
C30	1.999475	3.515496	-5.620369
C31	1.698315	3.799833	-6.953636
N32	1.902202	-0.850067	-5.570392
C33	1.762442	-0.671544	-7.032768
C34	3.217148	-0.580911	-7.515138
C35	3.980368	-1.466244	-6.517544
C36	3.285049	-1.171338	-5.183053
C37	-4.070699	-2.758715	0.103978
C38	-5.171371	-2.191183	-0.810013
O39	-6.216766	-2.828201	-0.966678
C40	-2.556873	-2.497194	-0.172552
C41	-2.014457	-1.096411	-0.459800
O42	-1.243192	-0.579581	0.500392
O43	-2.223556	-0.508942	-1.519244
N44	-4.981786	-0.946510	-1.321711
C45	-5.948961	-0.321506	-2.213920
C46	-5.312538	0.715273	-3.158623
C47	-5.140871	2.092119	-2.583741
C48	-3.963123	2.745119	-2.299991
C49	-6.199234	3.023240	-2.277672
C50	-5.579501	4.220971	-1.810177
C51	-7.601660	2.984413	-2.375488
N52	-4.223218	4.013013	-1.825890
C53	-6.321368	5.349571	-1.444410
C54	-8.341541	4.106552	-2.014417
C55	-7.706280	5.277646	-1.550575
C56	-10.151699	-0.370963	0.434281
C57	-9.851976	1.066811	0.872887
C58	-11.090281	1.957653	1.094189
C59	-12.009458	1.426630	2.204467
C60	-10.665588	3.403575	1.390782
C61	-3.192226	-5.198411	5.073658
C62	-4.558644	-4.542024	5.147529
O63	-5.591680	-5.196667	5.268735
N64	-4.558700	-3.177135	5.037754
C65	-5.784842	-2.395547	5.030713
C66	-6.105171	-1.717432	3.685514
C67	-7.495460	-1.071155	3.751741
C68	-5.040758	-0.685441	3.288653
C69	3.644798	7.476360	0.690009
C70	3.014070	6.628406	-0.229854
C71	3.362427	7.306820	2.051269
C72	2.122390	5.635691	0.182416
C73	2.474047	6.323043	2.479706
C74	1.836131	5.474796	1.552081
O75	0.982275	4.558384	2.040193
C76	0.618275	10.630720	0.161314
C77	-0.217338	10.680269	1.448675
C78	-0.535732	9.253718	1.937565
C79	-1.481307	11.528483	1.239185
C80	-1.243031	9.174924	3.294693
C81	8.807327	-0.607353	-2.890145
C82	8.549435	0.649992	-3.733996
C83	9.574269	1.749272	-3.389382
C84	7.098899	1.125082	-3.560756
C85	9.526981	2.983119	-4.297340
C86	7.131820	5.824880	1.319973
C87	7.420214	4.360107	1.095262
C88	8.736835	3.880232	1.057328
C89	6.373383	3.440447	0.947160
C90	9.003040	2.520636	0.889903
C91	6.633669	2.079584	0.777701
C92	7.949915	1.613617	0.752569
C93	-2.185634	7.259904	-3.030584
C94	-1.993981	6.890810	-1.696683
C95	-1.788810	6.366035	-4.031850
C96	-1.426080	5.660291	-1.359710
C97	-1.221246	5.138741	-3.718342
C98	-1.011117	4.734209	-2.367120
O99	-0.486048	3.568863	-2.083392
C100	3.329509	-3.765176	7.417612
C101	1.808126	-3.694728	7.601319
C102	1.093156	-3.548503	6.243378
O103	1.454182	-2.509555	5.563841
O104	0.285352	-4.416844	5.878990
C105	3.583449	0.056021	7.405812
C106	2.152590	0.599292	7.626216
O107	1.947426	1.567566	8.363983
C108	4.652496	1.132486	7.622893
C109	4.776380	2.171580	6.490777
C110	5.595174	3.383037	6.959344
C111	5.388452	1.570231	5.217251
N112	1.167403	-0.083097	6.985828
C113	-0.253120	0.217753	7.158913
C114	-0.889847	0.921879	5.944493
C115	-2.409587	1.021563	6.136326
C116	-0.269564	2.301249	5.692716
C117	3.602231	-4.239451	3.070906
C118	2.476218	-3.613654	2.320280
C119	2.157762	-3.651971	0.982405
N120	1.404490	-3.016486	2.942614
C121	0.507168	-2.718564	1.982277
N122	0.919137	-3.090655	0.776724
C123	4.146832	-7.892120	-0.457237
C124	4.197892	-6.516893	-1.086978
C125	3.221426	-6.118001	-2.011143
C126	5.214353	-5.611675	-0.754950
C127	3.239867	-4.839022	-2.570149
C128	5.244637	-4.333311	-1.316177
C129	4.252864	-3.943147	-2.217273
O130	-0.020691	-2.991984	-1.862452
O131	-0.440602	3.046738	0.335447
H132	-3.366787	-2.692533	-3.381662
H133	-2.717396	-4.074921	-4.311307
H134	-1.856783	1.249923	-4.912843
H135	-0.670293	1.264538	-3.608533
H136	-1.128441	1.930311	-7.257496
H137	1.384139	2.487090	-3.826914
H138	0.309639	3.460401	-8.570777
H139	2.860730	3.978160	-5.146213
H140	2.328521	4.475973	-7.525592
H141	-0.618705	-0.549058	-6.093974
H142	3.325671	-0.903173	-8.554913
H143	3.563886	0.456207	-7.443769
H144	3.853498	-2.522944	-6.778148
H145	5.052970	-1.254349	-6.482825
H146	3.290506	-2.015831	-4.491141
H147	3.734432	-0.314505	-4.663847
H148	1.197151	0.231417	-7.265304
H149	-2.240736	-3.054691	-1.058175
H150	-1.996432	-2.912844	0.666312
H151	-4.313681	-2.403086	1.113060
H152	-5.963636	0.779956	-4.041376
H153	-4.351622	0.330891	-3.519204
H154	-2.937655	2.416935	-2.402919
H155	-8.104804	2.092900	-2.741294
H156	-9.425107	4.086409	-2.099551
H157	-5.826034	6.252770	-1.099952
H158	-8.308557	6.140369	-1.277998
H159	-6.747759	0.152150	-1.628271
H160	-3.184235	-6.057645	5.746933
H161	-6.129312	-2.506093	2.921208
H162	-7.757184	-0.609539	2.794900
H163	-8.268539	-1.809150	3.992610
H164	-7.528194	-0.286987	4.519053
H165	-5.265149	-0.240197	2.313947
H166	-4.042676	-1.131596	3.218648
H167	-4.989783	0.128554	4.022632
H168	-5.734019	-1.629431	5.818756
H169	3.209879	6.742436	-1.293179
H170	3.839176	7.947930	2.789617
H171	1.634929	4.994080	-0.546656
H172	2.252368	6.185562	3.533587
H173	0.542661	3.997195	1.344061
H174	0.389394	11.170137	2.227378
H175	-2.137276	11.066867	0.490597
H176	-2.059355	11.643390	2.161758
H177	-1.227333	12.533308	0.881054
H178	-1.143726	8.745364	1.176320
H179	0.401207	8.687250	1.995043
H180	-0.665600	9.689366	4.073097
H181	-2.240892	9.626180	3.270253
H182	-1.362375	8.133064	3.607671
H183	0.055398	10.153117	-0.649516
H184	8.695275	0.380289	-4.792212
H185	6.864470	1.978390	-4.204189
H186	6.393023	0.324717	-3.808987
H187	6.907700	1.425858	-2.524125
H188	9.425178	2.057603	-2.345496
H189	10.581616	1.312193	-3.438606
H190	9.656073	2.705861	-5.350766
H191	8.576710	3.518218	-4.209496
H192	10.323407	3.690057	-4.040521
H193	8.684419	-0.388061	-1.822837
H194	6.163094	6.114497	0.904823
H195	7.905307	6.458460	0.872139
H196	9.562110	4.581466	1.163496
H197	5.345197	3.792401	0.963805
H198	10.031724	2.169453	0.868852
H199	5.801817	1.391253	0.670190
H200	8.152226	0.552797	0.632817
H201	-1.932583	6.630944	-5.078344
H202	-2.294209	7.569337	-0.898973
H203	-0.923846	4.453521	-4.503906
H204	-1.276854	5.387869	-0.318826
H205	-0.445397	3.268312	-0.704926
H206	1.429615	-4.588330	8.106879
H207	1.560443	-2.823465	8.221876
H208	3.612988	-4.661396	6.852372
H209	4.400742	1.650771	8.554148
H210	5.630132	0.650837	7.770169
H211	3.764061	2.527661	6.256459
H212	5.683855	4.135086	6.167329
H213	5.131280	3.860920	7.829004
H214	6.612051	3.081604	7.244835
H215	5.412806	2.299434	4.400797
H216	4.824674	0.701588	4.863661
H217	6.420083	1.242176	5.401506
H218	3.727246	-0.749869	8.137220
H219	-0.695394	0.287413	5.067582
H220	-2.889064	1.480118	5.265118
H221	-2.654245	1.637750	7.010916
H222	-2.862851	0.034693	6.289753
H223	-0.681884	2.767720	4.791507
H224	-0.456564	2.972072	6.539576
H225	0.813658	2.231445	5.564677
H226	-0.350262	0.847369	8.049389
H227	4.458654	-4.352400	2.396492
H228	3.919451	-3.602456	3.903856
H229	2.744725	-4.046055	0.166077
H230	-0.408214	-2.186339	2.185842
H231	3.875888	-8.635606	-1.217149
H232	5.147213	-8.175356	-0.099540
H233	5.992620	-5.911540	-0.055380
H234	2.427012	-6.794911	-2.315096
H235	6.036542	-3.641195	-1.042211
H236	2.449649	-4.573924	-3.265795
H237	4.261906	-2.939488	-2.631527
H238	-10.765364	-0.386752	-0.474718
H239	-10.686585	-0.935934	1.205019
H240	-9.214317	1.545022	0.119048
H241	-9.260574	1.050572	1.799692
H242	-11.666160	1.961570	0.155068
H243	-12.874048	2.085355	2.348018
H244	-12.390042	0.425149	1.981185
H245	-11.472045	1.372746	3.159708
H246	-11.536147	4.062573	1.492789
H247	-10.025489	3.803411	0.597753
H248	-10.099246	3.457313	2.328920
H249	0.317367	-2.916207	-0.938613
H250	-6.580325	-3.096220	5.295158
H251	-3.042519	-5.581145	4.057611
H252	-2.342498	-4.552245	5.314421
H253	3.856686	-3.803642	8.379072
H254	9.824606	-0.988380	-3.037524
H255	-4.080496	-3.139424	-4.956450
H256	-6.425157	-1.119723	-2.794717
H257	-4.209376	-3.838374	0.120199
H258	-2.632713	8.217548	-3.283472
H259	0.898043	11.637101	-0.173153
H260	7.101901	6.058840	2.391900
H261	-0.779228	-0.726931	7.345455
H262	4.330661	8.248681	0.354192
H263	1.318789	-2.807453	3.975688
H264	0.492385	-2.355458	-2.386366
H265	1.534809	10.049494	0.305836
H266	1.395304	-0.921143	6.428935
H267	-1.505505	-1.317325	-3.388193
H268	-3.670741	-2.703202	4.970866
H269	-4.046254	-0.557782	-1.332908
H270	-9.227038	-0.914263	0.213366
H271	-3.500697	4.700363	-1.630673
C272	-0.446611	0.635701	0.158178
C273	-1.209997	1.899266	0.590977
H274	-1.440441	1.845505	1.662715
H275	-0.347132	0.643292	-0.927249
C276	0.915708	0.491413	0.792695
C277	2.003122	0.107358	0.000403
C278	1.122077	0.738053	2.155567
C279	3.270017	-0.040203	0.566233
H280	1.853113	-0.089744	-1.057701
C281	2.386058	0.592011	2.721657
H282	0.293788	1.048637	2.784035
C283	3.464548	0.199099	1.927152
H284	4.101328	-0.359330	-0.057159
H285	2.523448	0.777236	3.782501
H286	4.449477	0.077872	2.369604
H287	-2.168167	1.926697	0.052824
H288	3.682707	-2.894499	6.862330
H289	3.655761	-0.416844	6.420996
H290	8.107184	-1.410071	-3.145759
H291	1.246686	-1.531801	-7.471680
C292	3.144654	-8.048562	0.702600
H293	2.143495	-7.736024	0.400289
H294	3.083129	-9.111200	0.980315
H295	-5.033751	-6.368208	0.497634
H296	-5.180391	-5.383891	-0.969044
H297	-6.022227	-6.926238	-0.854743
H298	-3.968378	-8.222855	-0.933159
H299	-3.936612	-7.115428	-2.292058
H300	-2.286601	-6.881968	1.435376
H301	0.046982	-5.957473	0.992765
H302	0.360425	-5.380866	-1.517937
H303	-1.656313	-6.142116	-2.730830
H304	0.578297	-5.008315	-8.796120
H305	-0.012345	-3.458234	-8.184853
H306	1.732528	-3.727653	-8.405944
H307	1.707512	-5.419708	-6.533553
H308	1.095328	-3.881952	-5.971523
H309	-0.619960	-6.291338	-6.776898
H310	-1.273389	-4.719701	-6.364441
H311	2.431552	-5.489561	4.413284
H312	4.075624	-6.103869	4.117075
H313	4.487988	-7.145019	2.079136