279

C1	3.153825	-0.283767	-5.877103
C2	2.140860	-1.441282	-5.816711
O3	1.802923	-2.050191	-6.837657
N4	1.666642	-1.735835	-4.575156
C5	0.692339	-2.799062	-4.365883
C6	-0.742939	-2.245790	-4.492425
O7	-1.068090	-1.179450	-3.953112
C8	0.913798	-3.480378	-2.989959
C9	0.196838	-4.807688	-2.867830
C10	0.777975	-5.978764	-3.377890
C11	-1.068563	-4.902627	-2.273388
C12	0.111530	-7.202738	-3.309345
C13	-1.741050	-6.124273	-2.204897
C14	-1.155280	-7.278893	-2.726414
N15	-1.660473	-2.961977	-5.197800
C16	-1.469702	-4.226452	-5.937313
C17	-2.904985	-4.675009	-6.238079
C18	-3.661501	-3.348505	-6.406213
C19	-3.028659	-2.442308	-5.340953
C20	3.870822	2.794662	-2.546485
C21	5.108386	1.872134	-2.493423
O22	6.234360	2.388210	-2.427718
C23	2.464743	2.284413	-2.962710
C24	1.745572	1.037084	-2.329786
O25	1.451271	1.314863	-0.906968
O26	2.319436	-0.126413	-2.521427
N27	4.899880	0.537943	-2.489082
C28	6.005964	-0.409442	-2.422432
C29	5.551651	-1.861119	-2.710183
C30	5.385470	-2.720639	-1.489540
C31	4.237640	-2.947054	-0.764772
C32	6.430581	-3.453912	-0.821460
C33	5.833107	-4.111558	0.295278
C34	7.807678	-3.627436	-1.047852
N35	4.501378	-3.782573	0.298742
C36	6.568820	-4.927985	1.161835
C37	8.543882	-4.431173	-0.183303
C38	7.928668	-5.076267	0.911191
C39	10.064347	1.852739	-0.664451
C40	9.744508	0.717978	0.316106
C41	10.966105	0.068686	0.994908
C42	11.752563	1.064007	1.861630
C43	10.540762	-1.151348	1.825336
C44	2.603708	7.982155	-0.841815
C45	3.994075	7.728219	-0.282188
O46	4.962491	8.414135	-0.603445
N47	4.090573	6.663360	0.571697
C48	5.363291	6.214053	1.117283
C49	5.868781	4.870799	0.554771
C50	7.333597	4.653704	0.958617
C51	5.006217	3.686858	1.009403
C52	-3.218021	-4.463597	5.308130
C53	-2.478633	-4.497025	4.118381
C54	-3.255065	-3.265495	6.032366
C55	-1.783058	-3.377766	3.654373
C56	-2.568093	-2.138572	5.585011
C57	-1.814009	-2.180207	4.394619
O58	-1.159932	-1.058354	4.042332
C59	0.019355	-6.789879	7.178199
C60	0.991393	-5.639711	7.483162
C61	0.681498	-4.422545	6.589747
C62	2.445458	-6.115690	7.343869
C63	1.460315	-3.148207	6.931805
C64	-8.689705	-1.843849	-2.938882
C65	-8.317742	-3.250479	-2.446802
C66	-9.318369	-3.728531	-1.375463
C67	-6.865874	-3.279619	-1.945607
C68	-9.155320	-5.191178	-0.948053
C69	-6.826692	-3.139916	4.594737
C70	-7.188457	-2.223914	3.450212
C71	-8.526132	-1.997611	3.098773
C72	-6.189350	-1.555328	2.729416
C73	-8.860299	-1.120811	2.065115
C74	-6.516673	-0.677156	1.695365
C75	-7.854826	-0.455208	1.360697
C76	2.761427	-6.532226	2.506238
C77	2.837957	-5.260877	3.088355
C78	1.957251	-6.680484	1.366133
C79	2.148778	-4.167814	2.552582
C80	1.263043	-5.607901	0.820403
C81	1.328250	-4.293405	1.385394
O82	0.688968	-3.292975	0.855064
C83	-3.923138	8.167004	1.887179
C84	-2.404541	8.329864	2.007220
C85	-1.588161	7.182709	1.387673
O86	-2.175581	6.022334	1.411405
O87	-0.448948	7.395791	0.955864
C88	-3.940038	5.495706	4.631274
C89	-2.491248	5.507795	5.154316
O90	-2.258365	5.551976	6.364579
C91	-4.742319	4.344028	5.261764
C92	-4.245241	2.927935	4.907525
C93	-5.006540	1.873977	5.724695
C94	-4.342972	2.619121	3.406180
N95	-1.518082	5.446863	4.206015
C96	-0.093351	5.504676	4.534936
C97	0.792473	4.845866	3.470382
C98	2.267427	5.103398	3.810289
C99	0.510986	3.344606	3.341335
C100	-3.823475	5.335364	-1.496568
C101	-2.597895	4.485706	-1.545924
C102	-2.193767	3.550935	-2.461743
N103	-1.616642	4.538476	-0.572831
C104	-0.664294	3.659325	-0.889900
N105	-0.987197	3.051192	-2.032541
C106	-4.610803	5.303925	-6.541513
C107	-4.442765	3.906933	-5.972267
C108	-3.294654	3.151174	-6.256513
C109	-5.391340	3.362162	-5.096438
C110	-3.084814	1.906373	-5.660659
C111	-5.190918	2.112965	-4.503018
C112	-4.030697	1.385698	-4.772786
O113	0.438377	1.095827	-3.022581
O114	0.491073	-0.941378	1.885192
H115	3.490956	0.038440	-4.892394
H116	2.686031	0.561113	-6.393034
H117	1.991771	-3.635155	-2.884265
H118	0.610021	-2.804717	-2.186598
H119	1.768364	-5.927788	-3.823842
H120	-1.516465	-4.014370	-1.841290
H121	0.586135	-8.098289	-3.702090
H122	-2.715853	-6.174685	-1.727365
H123	-1.673569	-8.232144	-2.664794
H124	0.865606	-3.528229	-5.161467
H125	-2.960449	-5.324158	-7.116963
H126	-3.300381	-5.230973	-5.380590
H127	-3.478386	-2.936352	-7.405480
H128	-4.743487	-3.446641	-6.279042
H129	-3.005724	-1.388314	-5.627470
H130	-3.556541	-2.506437	-4.380282
H131	-0.927809	-4.958082	-5.337128
H132	2.474993	2.051147	-4.031869
H133	1.789460	3.141820	-2.855514
H134	3.807400	3.235789	-1.544837
H135	6.297161	-2.329028	-3.365645
H136	4.620203	-1.838412	-3.285353
H137	3.240088	-2.560081	-0.916575
H138	8.292907	-3.137877	-1.888990
H139	9.608818	-4.570334	-0.353474
H140	6.083372	-5.427978	1.994853
H141	8.528178	-5.700981	1.568589
H142	6.494972	-0.362026	-1.439758
H143	2.544176	9.028214	-1.146624
H144	5.825290	4.925418	-0.540365
H145	7.712631	3.718634	0.535887
H146	7.972154	5.469046	0.600128
H147	7.440139	4.598505	2.050205
H148	5.347788	2.759460	0.541132
H149	3.951887	3.815039	0.740050
H150	5.059607	3.556823	2.098134
H151	5.286091	6.146895	2.212279
H152	-2.428694	-5.414751	3.537629
H153	-3.821689	-3.206599	6.959276
H154	-1.208328	-3.422900	2.732170
H155	-2.585753	-1.209594	6.147017
H156	-0.610048	-1.140647	3.214812
H157	0.834181	-5.336050	8.531284
H158	2.657034	-6.401541	6.306527
H159	3.159971	-5.335782	7.625759
H160	2.640791	-6.988672	7.978914
H161	0.867426	-4.690141	5.541626
H162	-0.390736	-4.205093	6.656996
H163	1.301503	-2.851528	7.976754
H164	2.538715	-3.268269	6.781357
H165	1.131414	-2.319407	6.297706
H166	0.144769	-7.137765	6.145950
H167	-8.396173	-3.937450	-3.304711
H168	-6.548140	-4.287482	-1.662270
H169	-6.176899	-2.925717	-2.720765
H170	-6.741981	-2.633932	-1.068444
H171	-9.229483	-3.079491	-0.493640
H172	-10.337154	-3.583735	-1.762081
H173	-9.223600	-5.867041	-1.809407
H174	-8.191269	-5.368707	-0.462345
H175	-9.936027	-5.481145	-0.236514
H176	-8.633113	-1.118932	-2.117842
H177	-5.856823	-3.618745	4.437901
H178	-7.582681	-3.919633	4.737426
H179	-9.314360	-2.513446	3.643490
H180	-5.145488	-1.723812	2.981058
H181	-9.904914	-0.956363	1.811981
H182	-5.721255	-0.175406	1.153499
H183	-8.111220	0.233283	0.559803
H184	1.876401	-7.656660	0.889240
H185	3.452819	-5.109011	3.974642
H186	0.648481	-5.742674	-0.064199
H187	2.223023	-3.187941	3.018035
H188	0.632778	-1.856794	1.444067
H189	-2.060289	9.267106	1.557934
H190	-2.122923	8.376603	3.068644
H191	-4.233761	8.138691	0.836403
H192	-4.699095	4.471194	6.349734
H193	-5.798064	4.438671	4.967733
H194	-3.186896	2.867593	5.195690
H195	-4.629819	0.866390	5.519274
H196	-4.909412	2.059109	6.800710
H197	-6.076501	1.883108	5.478478
H198	-3.958479	1.617447	3.189032
H199	-3.767490	3.327385	2.802142
H200	-5.386712	2.656413	3.066921
H201	-4.392172	6.450674	4.924683
H202	0.574994	5.335717	2.510401
H203	2.927475	4.637938	3.071462
H204	2.524131	4.677644	4.788498
H205	2.492479	6.175554	3.840109
H206	1.128626	2.894958	2.556991
H207	0.735377	2.819364	4.277387
H208	-0.538913	3.152243	3.102659
H209	0.037799	5.016270	5.506795
H210	-4.568350	4.959740	-2.202589
H211	-4.253196	5.340140	-0.490896
H212	-2.670019	3.199011	-3.360702
H213	0.221506	3.425291	-0.321314
H214	-4.403069	5.292290	-7.619485
H215	-5.652829	5.624552	-6.426677
H216	-6.291848	3.928573	-4.868228
H217	-2.544980	3.552897	-6.934663
H218	-5.932543	1.717632	-3.814393
H219	-2.172310	1.350476	-5.855624
H220	-3.835952	0.442828	-4.272009
H221	10.786744	1.525251	-1.422962
H222	10.486521	2.729303	-0.161226
H223	9.189581	-0.063818	-0.217356
H224	9.061685	1.089256	1.093482
H225	11.638390	-0.284014	0.196405
H226	12.615153	0.580276	2.335384
H227	12.126262	1.911614	1.278524
H228	11.117731	1.465278	2.661738
H229	11.407381	-1.645407	2.281211
H230	10.010652	-1.891229	1.216898
H231	9.866376	-0.852566	2.637258
H232	-0.444138	2.226831	-2.446417
H233	6.074925	7.008616	0.880359
H234	2.461338	7.362816	-1.735202
H235	1.789201	7.758514	-0.145271
H236	-4.449141	9.002224	2.366117
H237	-9.709919	-1.815136	-3.339257
H238	4.005600	-0.607674	-6.480995
H239	6.762096	-0.089488	-3.150084
H240	4.149083	3.615033	-3.215168
H241	3.304646	-7.374397	2.925278
H242	0.187882	-7.646726	7.842625
H243	-6.752412	-2.580457	5.535810
H244	0.217661	6.552545	4.665235
H245	-3.744793	-5.345612	5.660685
H246	-1.704730	5.170171	0.332205
H247	0.065773	0.192431	-3.079617
H248	-1.021785	-6.469139	7.291226
H249	-1.783482	5.515938	3.221291
H250	1.902031	-1.099699	-3.781191
H251	3.247447	6.162004	0.808087
H252	3.920813	0.182207	-2.451988
H253	9.156327	2.170354	-1.187499
H254	3.813199	-4.073702	0.986921
C255	0.239296	0.100885	0.938351
C256	1.444907	0.171709	-0.036028
H257	2.345140	0.194305	0.591607
H258	0.213432	1.029657	1.520026
C259	-1.125837	-0.063719	0.279762
C260	-2.073618	0.962988	0.350176
C261	-1.487879	-1.264144	-0.352073
C262	-3.332992	0.830215	-0.239828
H263	-1.827505	1.878514	0.879533
C264	-2.746307	-1.400819	-0.936859
H265	-0.798860	-2.104724	-0.335329
C266	-3.669528	-0.353297	-0.897259
H267	-4.043986	1.649932	-0.182331
H268	-3.016158	-2.334352	-1.423335
H269	-4.647077	-0.467678	-1.359567
H270	1.482900	-0.744316	-0.627315
H271	-3.602745	6.378502	-1.753939
H272	-4.254937	7.238359	2.349760
H273	-3.956543	5.444724	3.539510
H274	-8.009402	-1.503871	-3.727457
H275	-0.899608	-4.041097	-6.857678
C276	-3.677579	6.322769	-5.859528
H277	-2.628634	6.035680	-5.978300
H278	-3.805531	7.323557	-6.286900
H279	-3.882050	6.381706	-4.786188