279

C1	3.243060	-0.431904	-5.788350
C2	2.253398	-1.607594	-5.693151
O3	1.910279	-2.239713	-6.697979
N4	1.808815	-1.896719	-4.439021
C5	0.853813	-2.971459	-4.203556
C6	-0.591283	-2.467307	-4.396506
O7	-0.956980	-1.375695	-3.928581
C8	1.050758	-3.569454	-2.784632
C9	0.244898	-4.828051	-2.547129
C10	0.680575	-6.061393	-3.054446
C11	-0.959202	-4.789664	-1.831723
C12	-0.076718	-7.220743	-2.878273
C13	-1.722866	-5.945388	-1.659895
C14	-1.289183	-7.163310	-2.187400
N15	-1.474983	-3.245045	-5.070606
C16	-1.234086	-4.540215	-5.740088
C17	-2.650093	-5.055267	-6.024443
C18	-3.451505	-3.767924	-6.269987
C19	-2.859706	-2.783287	-5.251849
C20	3.803861	2.804689	-2.579950
C21	5.070668	1.927346	-2.485467
O22	6.178049	2.484381	-2.456892
C23	2.428819	2.241164	-3.012570
C24	1.706643	0.993625	-2.382033
O25	1.283473	1.301307	-1.005272
O26	2.335347	-0.158036	-2.467565
N27	4.907500	0.588806	-2.400927
C28	6.051281	-0.311388	-2.297700
C29	5.680511	-1.776713	-2.629199
C30	5.462090	-2.658688	-1.432890
C31	4.291566	-2.861047	-0.737081
C32	6.467270	-3.440722	-0.759298
C33	5.824007	-4.099330	0.331091
C34	7.842562	-3.658111	-0.960183
N35	4.504037	-3.726075	0.313961
C36	6.511539	-4.958736	1.196043
C37	8.531111	-4.504415	-0.097359
C38	7.870128	-5.149757	0.970109
C39	10.001516	2.167912	-0.586816
C40	9.684179	0.956143	0.297666
C41	10.905802	0.255102	0.922156
C42	11.702910	1.183515	1.850874
C43	10.478654	-1.018784	1.665971
C44	2.327784	8.007901	-1.107090
C45	3.709037	7.852745	-0.491568
O46	4.630479	8.626661	-0.743295
N47	3.854225	6.770468	0.333275
C48	5.122796	6.423752	0.956386
C49	5.707159	5.068475	0.512052
C50	7.156214	4.941777	1.001950
C51	4.865861	3.884132	1.005457
C52	-3.123402	-4.379779	5.483889
C53	-2.454336	-4.508036	4.257681
C54	-3.039567	-3.151928	6.154159
C55	-1.707270	-3.459376	3.710173
C56	-2.299530	-2.096529	5.624504
C57	-1.610987	-2.237881	4.403016
O58	-0.888597	-1.177253	3.986966
C59	0.170367	-6.507443	7.487256
C60	1.070871	-5.281019	7.698245
C61	0.833447	-4.248258	6.579777
C62	2.543780	-5.703371	7.806349
C63	1.492996	-2.883379	6.801403
C64	-8.574868	-2.302336	-2.929275
C65	-8.114603	-3.754810	-2.735256
C66	-8.975153	-4.449954	-1.661084
C67	-6.614667	-3.805650	-2.407416
C68	-8.711219	-5.950033	-1.492615
C69	-6.767555	-3.219351	4.673270
C70	-6.966489	-2.521339	3.349651
C71	-8.250936	-2.181950	2.900474
C72	-5.868257	-2.170473	2.554058
C73	-8.434464	-1.498221	1.698707
C74	-6.045799	-1.488967	1.348465
C75	-7.329478	-1.144815	0.920016
C76	2.963787	-6.341476	2.841637
C77	2.942285	-5.003299	3.249964
C78	2.180141	-6.705724	1.736347
C79	2.171465	-4.050394	2.580486
C80	1.404185	-5.774838	1.058517
C81	1.361919	-4.397499	1.449361
O82	0.636994	-3.529498	0.807158
C83	-4.237500	8.065653	1.533930
C84	-2.734663	8.325771	1.667552
C85	-1.837136	7.235124	1.052150
O86	-2.319133	6.031257	1.116002
O87	-0.729502	7.547886	0.596698
C88	-4.194885	5.510311	4.386050
C89	-2.738893	5.492505	4.903361
O90	-2.498968	5.488887	6.113567
C91	-5.140834	4.728713	5.304861
C92	-5.005090	3.194962	5.232738
C93	-5.747834	2.534191	6.402962
C94	-5.501960	2.627150	3.894905
N95	-1.761431	5.517731	3.958430
C96	-0.350076	5.656015	4.335260
C97	0.627634	5.373298	3.189002
C98	2.053502	5.660881	3.680864
C99	0.497982	3.936931	2.673140
C100	-3.990430	5.103172	-1.728051
C101	-2.703697	4.360976	-1.803268
C102	-2.257733	3.442520	-2.712618
N103	-1.718630	4.481359	-0.840419
C104	-0.724628	3.649080	-1.150318
N105	-1.022434	3.012623	-2.285495
C106	-4.708371	4.836091	-6.776373
C107	-4.489632	3.465473	-6.164208
C108	-3.308855	2.749570	-6.417283
C109	-5.426086	2.906566	-5.284454
C110	-3.056702	1.530022	-5.787770
C111	-5.184442	1.680978	-4.658644
C112	-3.993353	0.994791	-4.898690
O113	0.462257	0.990248	-3.189842
O114	0.776838	-1.165585	1.728675
H115	3.555729	-0.059817	-4.813303
H116	2.766579	0.377442	-6.350667
H117	2.118845	-3.785286	-2.682087
H118	0.804350	-2.824975	-2.023775
H119	1.629371	-6.111914	-3.584239
H120	-1.270548	-3.858114	-1.371774
H121	0.284258	-8.167812	-3.271474
H122	-2.648342	-5.896552	-1.092609
H123	-1.879672	-8.064321	-2.042407
H124	1.061842	-3.740082	-4.952163
H125	-2.674786	-5.752658	-6.866984
H126	-3.032476	-5.577162	-5.140371
H127	-3.274968	-3.404189	-7.289021
H128	-4.530254	-3.896994	-6.143407
H129	-2.871503	-1.746983	-5.596686
H130	-3.391377	-2.816839	-4.291669
H131	-0.672373	-5.218212	-5.098012
H132	2.481838	1.970705	-4.071350
H133	1.727310	3.082184	-2.963545
H134	3.711797	3.269860	-1.590664
H135	6.490083	-2.206055	-3.232531
H136	4.793186	-1.783409	-3.271069
H137	3.312754	-2.435317	-0.907229
H138	8.362921	-3.170692	-1.781423
H139	9.594041	-4.677425	-0.248016
H140	5.988631	-5.457908	2.006537
H141	8.433206	-5.808951	1.626129
H142	6.493711	-0.261895	-1.293112
H143	2.239988	9.024492	-1.492432
H144	5.717239	5.046357	-0.585169
H145	7.593391	3.995199	0.670386
H146	7.780719	5.755207	0.615520
H147	7.208617	4.970291	2.098433
H148	5.263695	2.939949	0.622577
H149	3.823480	3.950794	0.674460
H150	4.863719	3.831850	2.101898
H151	5.011160	6.429737	2.051106
H152	-2.498418	-5.448612	3.714187
H153	-3.552494	-3.013996	7.103537
H154	-1.184678	-3.582265	2.763641
H155	-2.226334	-1.146701	6.145079
H156	-0.393904	-1.301933	3.139713
H157	0.783057	-4.813558	8.654153
H158	2.881158	-6.162550	6.869104
H159	3.198291	-4.850251	8.011077
H160	2.691729	-6.435513	8.610020
H161	1.177318	-4.668533	5.625834
H162	-0.246993	-4.103339	6.471142
H163	1.176491	-2.439291	7.754056
H164	2.586801	-2.948177	6.812912
H165	1.211973	-2.189361	6.003798
H166	0.415280	-7.009083	6.543276
H167	-8.273675	-4.288767	-3.685818
H168	-6.239529	-4.832114	-2.354846
H169	-6.028887	-3.282590	-3.171666
H170	-6.407847	-3.325765	-1.443810
H171	-8.820154	-3.939226	-0.700882
H172	-10.034004	-4.303216	-1.917029
H173	-8.839758	-6.484709	-2.441818
H174	-7.696378	-6.148473	-1.135357
H175	-9.403471	-6.391146	-0.767344
H176	-8.442000	-1.730599	-2.003738
H177	-5.780021	-3.682432	4.737382
H178	-7.526991	-3.992569	4.837039
H179	-9.115297	-2.452132	3.504003
H180	-4.864619	-2.427467	2.882678
H181	-9.438087	-1.236283	1.372694
H182	-5.177331	-1.215363	0.758242
H183	-7.467002	-0.597355	-0.008416
H184	2.181466	-7.740852	1.396085
H185	3.543200	-4.688962	4.102338
H186	0.805429	-6.072031	0.203188
H187	2.162258	-3.014990	2.909557
H188	0.753986	-2.097713	1.287699
H189	-2.449233	9.285312	1.224590
H190	-2.466763	8.384609	2.732012
H191	-4.546120	8.073993	0.482004
H192	-4.934643	5.055658	6.329690
H193	-6.180625	5.004895	5.076751
H194	-3.938920	2.951659	5.337724
H195	-5.643800	1.443887	6.374632
H196	-5.362157	2.885944	7.365998
H197	-6.820964	2.765212	6.366785
H198	-5.363842	1.541937	3.847153
H199	-4.972794	3.061856	3.041217
H200	-6.572581	2.831718	3.761066
H201	-4.501664	6.564271	4.364982
H202	0.401921	6.060889	2.361875
H203	2.788872	5.471911	2.893243
H204	2.313846	5.016240	4.529819
H205	2.167207	6.702485	4.001549
H206	1.215002	3.738214	1.868205
H207	0.693462	3.211485	3.472657
H208	-0.504657	3.745285	2.285304
H209	-0.160916	4.973138	5.171472
H210	-4.681612	4.729070	-2.487525
H211	-4.450594	4.983093	-0.742740
H212	-2.720745	3.052023	-3.602215
H213	0.164002	3.454252	-0.573656
H214	-4.495113	4.798223	-7.852757
H215	-5.763121	5.118199	-6.676934
H216	-6.350382	3.442861	-5.080483
H217	-2.567480	3.163912	-7.096833
H218	-5.918398	1.272722	-3.969374
H219	-2.121053	1.005877	-5.959313
H220	-3.772145	0.067291	-4.381013
H221	10.733139	1.908899	-1.362565
H222	10.410071	3.005690	-0.011384
H223	9.131326	0.220581	-0.299425
H224	8.999107	1.260662	1.101727
H225	11.571863	-0.043342	0.096628
H226	12.567639	0.664408	2.281067
H227	12.074420	2.068886	1.325258
H228	11.076956	1.529195	2.683268
H229	11.345482	-1.551096	2.075922
H230	9.937393	-1.709470	1.011112
H231	9.814167	-0.776061	2.504299
H232	-0.469768	2.198814	-2.677862
H233	5.804210	7.234863	0.688712
H234	2.228178	7.313907	-1.950095
H235	1.502787	7.810862	-0.414566
H236	-4.824377	8.830453	2.057252
H237	-9.634727	-2.250355	-3.204819
H238	4.113030	-0.763205	-6.362021
H239	6.819813	0.059944	-2.985775
H240	4.068335	3.617134	-3.263760
H241	3.567447	-7.076899	3.366586
H242	0.288314	-7.240480	8.295472
H243	-6.845263	-2.509477	5.506676
H244	-0.172068	6.670500	4.723215
H245	-3.688417	-5.208649	5.899952
H246	-1.819273	5.130217	0.038221
H247	0.147858	0.072442	-3.313218
H248	-0.884682	-6.217674	7.439444
H249	-2.013773	5.611466	2.970898
H250	2.020022	-1.229417	-3.660040
H251	3.039016	6.209086	0.529070
H252	3.940784	0.202831	-2.355983
H253	9.095318	2.516056	-1.092108
H254	3.795527	-4.002219	0.988415
C255	0.628161	0.183364	-0.333277
C256	1.434992	-0.204552	0.922830
H257	1.612272	0.691092	1.531725
H258	0.654467	-0.671735	-1.011761
C259	-0.829825	0.493539	-0.010195
C260	-1.198055	1.137552	1.178860
C261	-1.848300	0.115072	-0.895638
C262	-2.530572	1.438162	1.457735
H263	-0.440075	1.387732	1.911049
C264	-3.184264	0.416901	-0.623099
H265	-1.597239	-0.416519	-1.808306
C266	-3.531676	1.090138	0.549585
H267	-2.784659	1.934514	2.389601
H268	-3.956186	0.123560	-1.331367
H269	-4.570994	1.323570	0.764084
H270	2.419766	-0.558450	0.588613
H271	-3.852524	6.179323	-1.885721
H272	-4.495199	7.087169	1.940490
H273	-4.232923	5.159733	3.349811
H274	-7.998139	-1.802087	-3.715052
H275	-0.664614	-4.379842	-6.665389
C276	-3.821720	5.915500	-6.126155
H277	-2.761134	5.668390	-6.230467
H278	-3.988867	6.894253	-6.589230
H279	-4.033808	6.003697	-5.056367