279

C1	2.141641	0.298584	-6.407006
C2	1.118434	-0.844119	-6.397862
O3	0.569819	-1.239912	-7.426695
N4	0.832719	-1.387484	-5.171130
C5	-0.313303	-2.277657	-4.990804
C6	-1.616058	-1.461157	-5.136107
O7	-1.695778	-0.317443	-4.655386
C8	-0.208847	-2.927806	-3.585123
C9	-1.301865	-3.923338	-3.262702
C10	-1.300802	-5.204377	-3.835022
C11	-2.332705	-3.594269	-2.374010
C12	-2.314988	-6.120650	-3.550956
C13	-3.348385	-4.507034	-2.086385
C14	-3.347945	-5.770825	-2.679350
N15	-2.675257	-2.021973	-5.767587
C16	-2.737805	-3.322373	-6.477952
C17	-4.233822	-3.483857	-6.774978
C18	-4.717376	-2.037777	-6.965513
C19	-3.927575	-1.259151	-5.905826
C20	3.453975	2.781820	-2.774488
C21	4.308629	1.726853	-3.492555
O22	4.667760	1.906968	-4.657970
C23	2.081145	2.957565	-3.453173
C24	1.256191	1.685510	-3.537745
O25	1.105576	1.451369	-0.289814
O26	1.660435	0.579728	-3.204551
N27	4.655088	0.617321	-2.769622
C28	5.347026	-0.517660	-3.383013
C29	4.580175	-1.855086	-3.357266
C30	4.704471	-2.635484	-2.080466
C31	3.692254	-3.001365	-1.222128
C32	5.914210	-3.211175	-1.543222
C33	5.549392	-3.906668	-0.350162
C34	7.259935	-3.240953	-1.952136
N35	4.196707	-3.754111	-0.186490
C36	6.485466	-4.601175	0.423416
C37	8.192682	-3.934012	-1.185421
C38	7.808699	-4.605351	-0.005808
C39	9.733257	1.215542	-1.822431
C40	9.574502	0.283645	-0.615735
C41	10.891866	-0.280295	-0.047837
C42	11.826199	0.820374	0.477367
C43	10.604053	-1.315848	1.049053
C44	2.773165	7.707336	-0.186567
C45	4.187759	7.199573	0.031048
O46	5.165367	7.715785	-0.508093
N47	4.302927	6.102502	0.843392
C48	5.597368	5.506595	1.140145
C49	5.985269	4.312737	0.248560
C50	7.469794	3.977238	0.447111
C51	5.104239	3.088112	0.515383
C52	-3.223283	-5.191594	4.740033
C53	-2.669379	-5.088958	3.460301
C54	-3.098911	-4.113918	5.623653
C55	-2.003424	-3.933927	3.055781
C56	-2.439279	-2.951555	5.235336
C57	-1.882404	-2.847522	3.945791
O58	-1.257604	-1.706130	3.623040
C59	0.023140	-7.956003	5.839180
C60	0.914596	-6.940649	6.569192
C61	0.777076	-5.546526	5.926137
C62	2.369358	-7.432912	6.608798
C63	1.505206	-4.417914	6.663318
C64	-9.379070	-1.029629	-2.302694
C65	-8.479955	-2.255338	-2.524606
C66	-8.847741	-3.379720	-1.535566
C67	-6.997895	-1.860110	-2.435999
C68	-8.143926	-4.717188	-1.789439
C69	-6.781609	-3.573680	4.674913
C70	-6.853641	-2.534136	3.580300
C71	-8.083895	-2.028546	3.140380
C72	-5.680444	-2.031015	2.999376
C73	-8.144848	-1.036976	2.158842
C74	-5.736355	-1.040861	2.017697
C75	-6.969257	-0.536198	1.596303
C76	2.233984	-7.135399	0.955399
C77	2.186053	-6.053963	1.841902
C78	1.660283	-6.969539	-0.312593
C79	1.598451	-4.838484	1.481127
C80	1.073727	-5.768695	-0.690855
C81	1.019578	-4.641139	0.186480
O82	0.502291	-3.510876	-0.203672
C83	-3.373848	7.834776	3.317617
C84	-1.964160	8.386472	3.561281
C85	-0.892069	7.687433	2.693632
O86	-1.046504	6.407007	2.605629
O87	0.007550	8.362142	2.176960
C88	-3.279327	4.777649	5.622226
C89	-1.800022	4.428411	5.898418
O90	-1.472408	3.878651	6.954957
C91	-4.243511	3.829187	6.343143
C92	-4.257079	2.379608	5.819616
C93	-5.104399	1.490053	6.741082
C94	-4.753964	2.277668	4.370396
N95	-0.920648	4.779962	4.926837
C96	0.522223	4.585813	5.058508
C97	1.177409	4.116737	3.750809
C98	2.704851	4.134010	3.901457
C99	0.678256	2.731690	3.326615
C100	-3.864690	5.557420	-0.430794
C101	-2.563741	4.810664	-0.477535
C102	-2.120108	3.776646	-1.276735
N103	-1.512101	5.083463	0.372773
C104	-0.515779	4.226580	0.068460
N105	-0.833752	3.412359	-0.927954
C106	-5.214450	6.348093	-5.291383
C107	-5.252892	4.915075	-4.793335
C108	-4.197405	4.031362	-5.066742
C109	-6.320226	4.449082	-4.015420
C110	-4.198214	2.727842	-4.568316
C111	-6.332087	3.143896	-3.517473
C112	-5.269546	2.281880	-3.788925
O113	0.055452	1.884897	-4.088359
O114	-0.157977	-1.607581	1.305177
H115	2.887119	0.237237	-5.615873
H116	1.600010	1.243327	-6.296015
H117	0.768197	-3.418509	-3.529344
H118	-0.202406	-2.138330	-2.828657
H119	-0.487107	-5.490816	-4.498237
H120	-2.320350	-2.625538	-1.884336
H121	-2.289411	-7.111053	-3.998150
H122	-4.127869	-4.236110	-1.379590
H123	-4.133085	-6.485069	-2.446568
H124	-0.266520	-3.039982	-5.771398
H125	-4.414231	-4.122581	-7.644540
H126	-4.731164	-3.939315	-5.911392
H127	-4.451070	-1.681993	-7.967623
H128	-5.798178	-1.922972	-6.844997
H129	-3.710147	-0.227003	-6.188904
H130	-4.454634	-1.232105	-4.943493
H131	-2.351145	-4.129812	-5.856777
H132	2.213223	3.317299	-4.480394
H133	1.478419	3.704740	-2.926731
H134	3.293611	2.519872	-1.726344
H135	4.980965	-2.459148	-4.185038
H136	3.526967	-1.673879	-3.594089
H137	2.627519	-2.808910	-1.259267
H138	7.571116	-2.740634	-2.865743
H139	9.231629	-3.967669	-1.503890
H140	6.181788	-5.125658	1.324784
H141	8.557137	-5.140244	0.573136
H142	6.321238	-0.649313	-2.896784
H143	2.831235	8.733600	-0.551040
H144	5.841801	4.635766	-0.791182
H145	7.772215	3.139641	-0.189771
H146	8.109999	4.833180	0.205447
H147	7.671871	3.689920	1.487137
H148	5.340024	2.275210	-0.179177
H149	4.040358	3.317828	0.403033
H150	5.255318	2.706725	1.532447
H151	5.605384	5.196498	2.193324
H152	-2.747598	-5.921164	2.765599
H153	-3.521388	-4.178942	6.623816
H154	-1.566690	-3.865430	2.063886
H155	-2.335588	-2.105723	5.907819
H156	-0.873802	-1.741528	2.686610
H157	0.558047	-6.864182	7.609285
H158	2.781840	-7.500666	5.594472
H159	3.014585	-6.762600	7.185372
H160	2.437982	-8.429431	7.061718
H161	1.131581	-5.596754	4.887812
H162	-0.288272	-5.295561	5.864596
H163	1.184276	-4.355149	7.710884
H164	2.592517	-4.551306	6.657244
H165	1.289707	-3.452511	6.195521
H166	0.341709	-8.071479	4.796337
H167	-8.671424	-2.631898	-3.542192
H168	-6.331468	-2.696456	-2.667284
H169	-6.766775	-1.051655	-3.139204
H170	-6.749239	-1.507548	-1.428109
H171	-8.629571	-3.038637	-0.514451
H172	-9.934637	-3.538267	-1.578960
H173	-8.337690	-5.080765	-2.806087
H174	-7.059549	-4.638731	-1.667253
H175	-8.494844	-5.483556	-1.090204
H176	-9.235015	-0.620509	-1.295529
H177	-5.949035	-4.263571	4.514396
H178	-7.709983	-4.151267	4.739876
H179	-9.004324	-2.412160	3.576077
H180	-4.716607	-2.416664	3.319202
H181	-9.110073	-0.651829	1.839146
H182	-4.814217	-0.662713	1.586283
H183	-7.010693	0.244007	0.841466
H184	1.679354	-7.795672	-1.022950
H185	2.622349	-6.151443	2.835673
H186	0.632373	-5.655565	-1.676602
H187	1.569321	-4.013175	2.187217
H188	0.207591	-2.391907	0.719369
H189	-1.915642	9.465329	3.380717
H190	-1.688700	8.223963	4.613419
H191	-3.707670	8.052843	2.295644
H192	-3.958518	3.814878	7.400647
H193	-5.262418	4.240321	6.283750
H194	-3.224435	2.010121	5.858555
H195	-5.092627	0.447165	6.405705
H196	-4.732648	1.518383	7.771588
H197	-6.151702	1.821242	6.753790
H198	-4.771854	1.236365	4.032780
H199	-4.116629	2.833528	3.676171
H200	-5.774924	2.672270	4.277990
H201	-3.440527	5.802382	5.983026
H202	0.892306	4.847013	2.981596
H203	3.192422	3.785771	2.984120
H204	3.029577	3.464394	4.708014
H205	3.078048	5.139712	4.130959
H206	1.070370	2.448985	2.344876
H207	0.992197	1.964472	4.045173
H208	-0.414093	2.711291	3.271798
H209	0.676998	3.856846	5.860304
H210	-4.549384	5.159807	-1.184908
H211	-4.349283	5.467801	0.549008
H212	-2.650360	3.282872	-2.078935
H213	0.417854	4.214014	0.610570
H214	-5.023095	6.356215	-6.372967
H215	-6.198315	6.810243	-5.147248
H216	-7.148074	5.118680	-3.791902
H217	-3.356009	4.371712	-5.665673
H218	-7.167325	2.805127	-2.910253
H219	-3.361800	2.063201	-4.767886
H220	-5.264901	1.272946	-3.387022
H221	10.286913	0.723758	-2.631823
H222	10.266804	2.137140	-1.567725
H223	8.932756	-0.559976	-0.898700
H224	9.040882	0.813063	0.186444
H225	11.411117	-0.797065	-0.870721
H226	12.750989	0.392497	0.882090
H227	12.106022	1.532119	-0.305611
H228	11.342895	1.386405	1.283594
H229	11.530479	-1.765035	1.426627
H230	9.959850	-2.120017	0.679262
H231	10.092538	-0.848982	1.899807
H232	0.392340	2.039004	-0.629389
H233	6.335547	6.303916	1.015511
H234	2.285701	7.100414	-0.958904
H235	2.134822	7.677457	0.704575
H236	-4.109437	8.272759	4.004179
H237	-10.439668	-1.286104	-2.408881
H238	2.633710	0.305534	-7.380909
H239	5.534425	-0.209432	-4.414380
H240	3.995185	3.730897	-2.821429
H241	2.698794	-8.074432	1.242727
H242	0.065689	-8.943856	6.314230
H243	-6.618895	-3.102625	5.652557
H244	0.993903	5.527480	5.379348
H245	-3.735307	-6.099648	5.047054
H246	-1.439935	5.734411	1.194019
H247	-0.438942	1.030413	-4.157030
H248	-1.021344	-7.626856	5.826021
H249	-1.215265	5.336648	4.114040
H250	1.140049	-0.867702	-4.348609
H251	3.477292	5.749087	1.303596
H252	4.144546	0.444845	-1.914494
H253	8.756314	1.504405	-2.222757
H254	3.614828	-4.176575	0.530225
C255	0.580858	0.131225	-0.199385
C256	0.627134	-0.419137	1.233370
H257	0.114295	0.314215	1.869185
H258	1.133895	-0.536764	-0.873146
C259	4.556809	-1.100063	2.967694
C260	3.394031	-1.472323	3.647263
C261	4.451934	-0.480761	1.723772
C262	2.143741	-1.241950	3.076592
H263	3.460192	-1.946190	4.623660
C264	3.195955	-0.243291	1.157353
H265	5.348563	-0.188994	1.184141
C266	2.025090	-0.633122	1.816228
H267	1.243009	-1.534853	3.607501
H268	3.119531	0.273025	0.207513
H269	-0.471351	0.104247	-0.507723
H270	5.533891	-1.289406	3.404615
H271	-3.727431	6.628416	-0.626924
H272	-3.382104	6.752044	3.439448
H273	-3.464399	4.802021	4.544050
H274	-9.152000	-0.232841	-3.019694
H275	-2.145321	-3.266458	-7.400787
C276	-4.137779	7.195741	-4.586875
H277	-3.141152	6.769881	-4.734368
H278	-4.129023	8.220848	-4.973666
H279	-4.317928	7.238268	-3.508519