279

C1	2.377664	0.306583	-6.191925
C2	1.478339	-0.928101	-6.108760
O3	1.211702	-1.599134	-7.108912
N4	0.982133	-1.231219	-4.868958
C5	0.043399	-2.335927	-4.696005
C6	-1.405613	-1.800039	-4.635533
O7	-1.691413	-0.838800	-3.915453
C8	0.368642	-3.095823	-3.383538
C9	-0.463633	-4.342824	-3.182127
C10	-0.030875	-5.579321	-3.684098
C11	-1.696071	-4.292731	-2.514535
C12	-0.807270	-6.730238	-3.534423
C13	-2.476967	-5.439584	-2.365235
C14	-2.037185	-6.663178	-2.876113
N15	-2.371488	-2.421224	-5.362565
C16	-2.252697	-3.628533	-6.192123
C17	-3.711668	-4.064388	-6.392270
C18	-4.481130	-2.734244	-6.382021
C19	-3.751157	-1.914371	-5.310213
C20	3.393434	3.088911	-2.683264
C21	4.625228	2.169607	-2.777927
O22	5.766250	2.643415	-2.721422
C23	2.006926	2.457614	-2.902417
C24	1.691959	1.359664	-1.861140
O25	1.523900	1.726674	-0.678041
O26	1.709019	0.135831	-2.269641
N27	4.406055	0.831618	-2.936086
C28	5.515975	-0.108315	-3.019524
C29	5.083002	-1.497432	-3.540989
C30	4.869378	-2.526425	-2.467440
C31	3.759335	-2.680785	-1.671299
C32	5.822044	-3.515059	-2.031206
C33	5.213976	-4.246047	-0.969202
C34	7.127621	-3.858553	-2.425756
N35	3.961063	-3.714333	-0.775760
C36	5.869143	-5.296285	-0.316294
C37	7.784167	-4.896862	-1.774970
C38	7.158899	-5.609859	-0.730456
C39	9.721403	2.004957	-1.429913
C40	9.420981	0.703483	-0.678001
C41	10.654035	-0.115072	-0.248421
C42	11.555148	0.651418	0.731499
C43	10.225888	-1.462493	0.351445
C44	2.302607	8.107115	-0.436207
C45	3.730836	7.816257	-0.005269
O46	4.665434	8.568447	-0.279256
N47	3.902281	6.645603	0.683004
C48	5.212101	6.184322	1.118548
C49	5.737111	4.938431	0.380740
C50	7.233617	4.755348	0.671231
C51	4.959811	3.669925	0.749902
C52	-3.027585	-4.837018	5.099998
C53	-2.570026	-4.637800	3.796633
C54	-2.551703	-4.011383	6.123679
C55	-1.638627	-3.641281	3.511131
C56	-1.620436	-3.012080	5.853958
C57	-1.146648	-2.830191	4.545327
O58	-0.209209	-1.872144	4.347252
C59	0.347583	-7.306991	6.477234
C60	1.569551	-6.482251	6.908640
C61	1.603915	-5.143322	6.147848
C62	2.859868	-7.297004	6.732773
C63	2.684667	-4.155818	6.599352
C64	-9.176299	-1.531897	-2.389007
C65	-8.315036	-2.789800	-2.572871
C66	-8.893449	-3.964738	-1.759223
C67	-6.850598	-2.492547	-2.218320
C68	-8.212517	-5.315747	-2.004279
C69	-6.677901	-3.466423	4.816662
C70	-7.544277	-2.743342	3.812161
C71	-8.727773	-3.312396	3.327084
C72	-7.175813	-1.474946	3.337796
C73	-9.524299	-2.638254	2.397966
C74	-7.965963	-0.797717	2.410643
C75	-9.146486	-1.376904	1.937168
C76	2.678493	-6.641040	1.625857
C77	2.684147	-5.377461	2.218663
C78	1.754258	-6.906106	0.608360
C79	1.787143	-4.385650	1.806741
C80	0.854682	-5.932524	0.186376
C81	0.863760	-4.658890	0.782415
O82	-0.036322	-3.752410	0.331793
C83	-3.964130	8.039179	2.850844
C84	-2.688818	8.300828	2.045721
C85	-1.723300	7.093902	1.940032
O86	-2.259189	5.930528	2.086297
O87	-0.526037	7.329922	1.702651
C88	-3.757525	5.141643	5.346396
C89	-2.267928	5.048900	5.732494
O90	-1.940300	4.823368	6.903254
C91	-4.490595	3.828116	5.664451
C92	-4.052800	2.618558	4.814979
C93	-4.706546	1.332166	5.340897
C94	-4.350064	2.807950	3.319336
N95	-1.382611	5.206463	4.718645
C96	0.066581	5.169062	4.920054
C97	0.819648	4.726032	3.656580
C98	2.330907	4.816310	3.909083
C99	0.418421	3.313346	3.213219
C100	-4.169674	5.509459	-0.759715
C101	-2.960656	4.713940	-1.123709
C102	-2.637301	4.053741	-2.282587
N103	-1.894526	4.497957	-0.273772
C104	-0.991185	3.731160	-0.942755
N105	-1.408904	3.440849	-2.167750
C106	-5.388508	5.910131	-5.702005
C107	-5.229064	4.460166	-5.293629
C108	-4.071545	3.743731	-5.631122
C109	-6.208661	3.814121	-4.528864
C110	-3.868745	2.438228	-5.182276
C111	-6.026910	2.498748	-4.095206
C112	-4.851728	1.815718	-4.407708
O113	-0.730485	1.849912	-4.566242
O114	0.297258	-1.409030	1.678605
H115	3.083104	0.373097	-5.360392
H116	1.737609	1.195115	-6.151648
H117	1.430660	-3.356483	-3.417271
H118	0.230285	-2.399787	-2.550369
H119	0.929667	-5.638070	-4.190400
H120	-2.034807	-3.346908	-2.103111
H121	-0.449008	-7.678462	-3.927080
H122	-3.424890	-5.379263	-1.837139
H123	-2.642862	-7.557253	-2.753746
H124	0.178873	-2.987338	-5.560864
H125	-3.849441	-4.643825	-7.310039
H126	-4.024704	-4.687717	-5.547058
H127	-4.392595	-2.240616	-7.356755
H128	-5.546200	-2.851050	-6.162281
H129	-3.767033	-0.838577	-5.497351
H130	-4.171515	-2.078545	-4.309128
H131	-1.661144	-4.398014	-5.692969
H132	1.908505	2.060621	-3.913096
H133	1.253932	3.242527	-2.796739
H134	3.428509	3.545712	-1.689462
H135	5.857424	-1.865354	-4.224004
H136	4.177704	-1.388574	-4.147746
H137	2.844237	-2.102132	-1.672717
H138	7.618841	-3.316780	-3.230261
H139	8.793670	-5.166881	-2.074277
H140	5.380719	-5.844355	0.483772
H141	7.694967	-6.418273	-0.239923
H142	6.010433	-0.219596	-2.044033
H143	2.211517	9.179095	-0.617623
H144	5.619989	5.111940	-0.696424
H145	7.627540	3.889980	0.129509
H146	7.811616	5.635853	0.367545
H147	7.411591	4.590937	1.742545
H148	5.313588	2.821574	0.157935
H149	3.884859	3.761383	0.562041
H150	5.090674	3.422103	1.810904
H151	5.187123	5.985044	2.200002
H152	-2.932659	-5.266828	2.988264
H153	-2.905911	-4.147993	7.142345
H154	-1.288715	-3.503481	2.494113
H155	-1.241811	-2.362446	6.636544
H156	0.028147	-1.797190	3.396677
H157	1.460748	-6.253443	7.981037
H158	3.026990	-7.531939	5.674116
H159	3.739835	-6.756799	7.096089
H160	2.806177	-8.246831	7.278145
H161	1.718043	-5.346651	5.074357
H162	0.624150	-4.663588	6.253041
H163	2.603929	-3.941616	7.672422
H164	3.697219	-4.530607	6.413119
H165	2.581888	-3.206525	6.064443
H166	0.416856	-7.575685	5.416218
H167	-8.355966	-3.072211	-3.636941
H168	-6.194150	-3.343895	-2.423364
H169	-6.473194	-1.641858	-2.795592
H170	-6.748647	-2.240173	-1.156139
H171	-8.840303	-3.716688	-0.690025
H172	-9.962367	-4.058848	-1.997318
H173	-8.238900	-5.586533	-3.066758
H174	-7.164042	-5.306549	-1.691601
H175	-8.712070	-6.115071	-1.446072
H176	-9.166215	-1.205875	-1.342017
H177	-5.668882	-3.640074	4.427606
H178	-7.106035	-4.436303	5.087128
H179	-9.029047	-4.295796	3.681114
H180	-6.260542	-1.013935	3.699654
H181	-10.439831	-3.099202	2.036289
H182	-7.658991	0.182700	2.058030
H183	-9.766273	-0.846910	1.219457
H184	1.738766	-7.882761	0.131688
H185	3.394386	-5.146508	3.007573
H186	0.141768	-6.128122	-0.607085
H187	1.798175	-3.410472	2.282585
H188	0.087535	-2.870372	0.755006
H189	-2.951575	8.584278	1.015873
H190	-2.122771	9.145737	2.453203
H191	-4.493451	7.172898	2.448276
H192	-4.316808	3.601683	6.723262
H193	-5.573646	3.977212	5.539784
H194	-2.965853	2.508199	4.932343
H195	-4.350982	0.453670	4.789840
H196	-4.480947	1.172671	6.401412
H197	-5.799005	1.374243	5.235648
H198	-4.053206	1.921526	2.747356
H199	-3.819064	3.663912	2.893520
H200	-5.425434	2.961977	3.154551
H201	-4.188408	5.945860	5.954880
H202	0.556952	5.429732	2.854897
H203	2.895604	4.502809	3.024993
H204	2.635553	4.160097	4.735172
H205	2.635844	5.838526	4.161542
H206	0.947496	3.022020	2.299398
H207	0.660666	2.576416	3.990841
H208	-0.655737	3.257837	3.013864
H209	0.267403	4.490819	5.757781
H210	-4.915695	5.424261	-1.555564
H211	-4.622098	5.159523	0.175084
H212	-3.224052	3.977597	-3.183140
H213	-0.057212	3.383279	-0.518743
H214	-5.265536	5.998313	-6.790871
H215	-6.413494	6.236085	-5.484666
H216	-7.113947	4.353161	-4.256595
H217	-3.290619	4.229204	-6.211876
H218	-6.791551	2.021517	-3.486997
H219	-2.907855	1.956831	-5.349809
H220	-4.674150	0.818274	-4.016965
H221	10.374094	1.820250	-2.292513
H222	10.213515	2.747481	-0.793078
H223	8.789638	0.069064	-1.312843
H224	8.816435	0.929276	0.212260
H225	11.244982	-0.322089	-1.154877
H226	12.423777	0.049210	1.023400
H227	11.928595	1.585567	0.300567
H228	11.005416	0.904532	1.646853
H229	11.094269	-2.074948	0.621975
H230	9.611199	-2.039106	-0.347807
H231	9.631785	-1.311472	1.261218
H232	-0.859563	2.412476	-3.769958
H233	5.884321	7.029236	0.949015
H234	2.096515	7.584109	-1.377340
H235	1.547194	7.793001	0.292668
H236	-4.638323	8.905702	2.829861
H237	-10.219580	-1.714371	-2.672529
H238	2.910441	0.279306	-7.142786
H239	6.262980	0.338037	-3.685157
H240	3.572139	3.898090	-3.400302
H241	3.377343	-7.405651	1.950573
H242	0.268758	-8.237714	7.052205
H243	-6.563547	-2.881349	5.736327
H244	0.426456	6.163724	5.224553
H245	-3.745143	-5.622714	5.317542
H246	-1.819081	4.913747	0.672257
H247	-0.903971	0.956244	-4.228036
H248	-0.581133	-6.742563	6.609845
H249	-1.723916	5.425691	3.773191
H250	1.168647	-0.620871	-4.062088
H251	3.084193	6.097306	0.904963
H252	3.459940	0.455326	-2.818981
H253	8.792805	2.446661	-1.805126
H254	3.299035	-4.015850	-0.074942
C255	-0.057010	-0.009245	1.432952
C256	1.300672	-0.434897	1.116423
H257	-0.748827	0.153282	0.611539
H258	-0.253479	0.551362	2.343185
C259	4.841153	0.247388	3.447429
C260	3.608957	0.130162	4.094213
C261	4.902319	0.160573	2.056192
C262	2.444291	-0.080517	3.357453
H263	3.550616	0.205762	5.176451
C264	3.739431	-0.051062	1.316495
H265	5.853877	0.258218	1.542489
C266	2.501198	-0.179069	1.959091
H267	1.498241	-0.167779	3.881488
H268	3.777613	-0.100788	0.233821
H269	5.746958	0.410655	4.025114
H270	1.488663	-0.599589	0.059362
H271	-3.940563	6.572971	-0.616580
H272	-3.731080	7.824468	3.898409
H273	-3.872068	5.421738	4.296594
H274	-8.802489	-0.701324	-2.997222
H275	-1.768406	-3.389816	-7.148954
C276	-4.395178	6.868987	-5.017944
H277	-3.360513	6.593446	-5.241268
H278	-4.553094	7.899368	-5.356327
H279	-4.508912	6.843351	-3.930161