279

C1	2.697185	0.362202	-6.061460
C2	1.834054	-0.903369	-6.034957
O3	1.631117	-1.572442	-7.051671
N4	1.296707	-1.225291	-4.820602
C5	0.372959	-2.345302	-4.669773
C6	-1.085871	-1.830571	-4.709922
O7	-1.425518	-0.851932	-4.038384
C8	0.637134	-3.033337	-3.304657
C9	-0.236350	-4.239687	-3.042943
C10	0.150321	-5.515293	-3.481541
C11	-1.460923	-4.112514	-2.370306
C12	-0.663329	-6.629211	-3.265475
C13	-2.277815	-5.223309	-2.152925
C14	-1.883859	-6.486194	-2.601604
N15	-2.001924	-2.488935	-5.467430
C16	-1.813161	-3.704677	-6.267970
C17	-3.249485	-4.162555	-6.560812
C18	-4.033887	-2.842496	-6.622072
C19	-3.387412	-1.998350	-5.515922
C20	3.468710	3.175349	-2.515364
C21	4.731514	2.293064	-2.535903
O22	5.848462	2.795582	-2.365624
C23	2.116429	2.513690	-2.834356
C24	1.790420	1.357164	-1.866673
O25	1.565532	1.664054	-0.670411
O26	1.863609	0.161992	-2.324257
N27	4.564145	0.956548	-2.751689
C28	5.695580	0.040339	-2.746148
C29	5.339369	-1.341488	-3.341674
C30	5.070258	-2.412935	-2.323125
C31	3.956420	-2.546299	-1.526354
C32	5.963400	-3.481985	-1.957233
C33	5.320560	-4.235470	-0.932075
C34	7.241327	-3.882493	-2.387517
N35	4.103410	-3.641836	-0.696182
C36	5.915399	-5.359777	-0.348457
C37	7.837820	-4.995427	-1.806129
C38	7.179528	-5.727868	-0.796153
C39	9.760261	2.275118	-0.967794
C40	9.437041	0.880426	-0.419558
C41	10.656491	0.007006	-0.067137
C42	11.524241	0.629337	1.037275
C43	10.212620	-1.408913	0.329092
C44	2.131032	8.161777	-0.331859
C45	3.548320	7.912351	0.157172
O46	4.475616	8.681274	-0.093074
N47	3.718864	6.755986	0.869941
C48	5.019333	6.324804	1.360121
C49	5.565718	5.043519	0.701058
C50	7.042704	4.859194	1.077208
C51	4.756242	3.796638	1.079177
C52	-3.075993	-4.926262	4.978624
C53	-2.470366	-4.703090	3.741708
C54	-3.246514	-3.858174	5.864807
C55	-2.040724	-3.428187	3.381809
C56	-2.823996	-2.578077	5.518845
C57	-2.218343	-2.357589	4.272655
O58	-1.831572	-1.095911	3.971483
C59	0.301256	-7.296910	6.516012
C60	1.241902	-6.233975	7.102298
C61	1.119691	-4.912919	6.318031
C62	2.684184	-6.761209	7.148762
C63	1.908431	-3.738511	6.906495
C64	-8.963130	-1.805439	-2.794260
C65	-8.054138	-3.035631	-2.932023
C66	-8.632571	-4.225538	-2.140014
C67	-6.618384	-2.691880	-2.508040
C68	-7.910659	-5.559225	-2.361874
C69	-6.747114	-3.661625	4.523519
C70	-7.606065	-2.953290	3.502474
C71	-8.742196	-3.564382	2.957251
C72	-7.270660	-1.664803	3.060040
C73	-9.521873	-2.913026	1.998594
C74	-8.044752	-1.009914	2.103023
C75	-9.176095	-1.631508	1.568151
C76	2.834603	-6.567833	1.776485
C77	2.941870	-5.333423	2.421495
C78	1.865078	-6.725498	0.779372
C79	2.103538	-4.266634	2.080261
C80	1.020684	-5.676372	0.428527
C81	1.134343	-4.433850	1.076596
O82	0.293111	-3.448662	0.681199
C83	-4.276897	7.915867	2.661347
C84	-2.990786	8.232210	1.893771
C85	-1.958301	7.078617	1.840868
O86	-2.436795	5.887590	1.959992
O87	-0.765036	7.380752	1.664114
C88	-4.103088	5.027416	5.169897
C89	-2.627364	4.997027	5.614181
O90	-2.337573	4.796623	6.799303
C91	-4.762425	3.654439	5.393011
C92	-4.192995	2.515947	4.523374
C93	-4.752331	1.157640	4.970687
C94	-4.441020	2.738448	3.023381
N95	-1.701817	5.162123	4.636433
C96	-0.265681	5.164661	4.921191
C97	0.588731	4.889007	3.677971
C98	2.070977	5.037045	4.048170
C99	0.302949	3.502893	3.089311
C100	-4.241934	5.378488	-0.949518
C101	-2.988683	4.633642	-1.268640
C102	-2.596511	3.986907	-2.413923
N103	-1.947559	4.459956	-0.379145
C104	-0.991461	3.728591	-1.013855
N105	-1.350292	3.421982	-2.252673
C106	-5.241202	5.740062	-5.943821
C107	-5.049014	4.295290	-5.532091
C108	-3.854736	3.620663	-5.824392
C109	-6.034379	3.613954	-4.806448
C110	-3.623354	2.322806	-5.367452
C111	-5.823044	2.305318	-4.365764
C112	-4.612892	1.664717	-4.631526
O113	-0.501268	1.851415	-4.617844
O114	0.085685	-1.050650	2.075743
H115	3.353268	0.446906	-5.192959
H116	2.025641	1.228224	-6.053484
H117	1.692551	-3.322103	-3.288335
H118	0.496325	-2.279433	-2.523449
H119	1.105166	-5.633956	-3.988410
H120	-1.766059	-3.133955	-2.012000
H121	-0.340677	-7.608731	-3.609460
H122	-3.218289	-5.102359	-1.621940
H123	-2.517366	-7.351888	-2.427106
H124	0.568351	-3.027762	-5.498636
H125	-3.317525	-4.755986	-7.477498
H126	-3.612912	-4.778530	-5.730365
H127	-3.886001	-2.361416	-7.595955
H128	-5.109830	-2.970185	-6.472586
H129	-3.402588	-0.925654	-5.719517
H130	-3.873995	-2.154160	-4.543843
H131	-1.248067	-4.459899	-5.717688
H132	2.081610	2.158570	-3.864067
H133	1.333782	3.269834	-2.734355
H134	3.431069	3.614832	-1.513624
H135	6.169957	-1.669276	-3.976760
H136	4.479803	-1.230770	-4.011488
H137	3.073945	-1.918296	-1.483121
H138	7.757812	-3.327802	-3.167035
H139	8.825741	-5.309163	-2.133653
H140	5.400996	-5.921457	0.425373
H141	7.668635	-6.595148	-0.359981
H142	6.095324	-0.087292	-1.729896
H143	2.021334	9.228079	-0.534886
H144	5.506984	5.171097	-0.387177
H145	7.454955	3.969646	0.591528
H146	7.645136	5.721799	0.769855
H147	7.162592	4.736152	2.162041
H148	5.144422	2.916731	0.558496
H149	3.698808	3.883553	0.808325
H150	4.810708	3.604070	2.158596
H151	4.971960	6.181932	2.450124
H152	-2.325160	-5.526002	3.047252
H153	-3.710731	-4.024077	6.833831
H154	-1.566337	-3.263934	2.419461
H155	-2.945462	-1.736072	6.192519
H156	-1.268456	-1.119067	3.162454
H157	0.922857	-6.036066	8.138064
H158	3.060468	-6.947719	6.135157
H159	3.366165	-6.054606	7.631782
H160	2.741087	-7.705975	7.702201
H161	1.433080	-5.084424	5.278881
H162	0.060458	-4.632622	6.263163
H163	1.628150	-3.554963	7.950983
H164	2.989919	-3.908389	6.878067
H165	1.707477	-2.819991	6.346571
H166	0.591198	-7.546215	5.488103
H167	-8.035339	-3.322950	-3.995379
H168	-5.929816	-3.528338	-2.662937
H169	-6.233181	-1.841133	-3.080111
H170	-6.579860	-2.419322	-1.446693
H171	-8.621823	-3.977582	-1.069477
H172	-9.689957	-4.345486	-2.415002
H173	-7.896143	-5.830565	-3.424459
H174	-6.873259	-5.524150	-2.015834
H175	-8.407896	-6.370725	-1.819330
H176	-9.016985	-1.481838	-1.747961
H177	-5.807764	-4.014207	4.083685
H178	-7.263690	-4.529034	4.946222
H179	-9.019613	-4.562741	3.288577
H180	-6.394680	-1.169949	3.470794
H181	-10.401497	-3.405961	1.592426
H182	-7.764051	-0.012478	1.777122
H183	-9.784495	-1.118342	0.828680
H184	1.769077	-7.675867	0.260971
H185	3.689072	-5.183127	3.195937
H186	0.274363	-5.788890	-0.350185
H187	2.204018	-3.309467	2.582559
H188	0.450127	-2.604155	1.156541
H189	-3.234987	8.482126	0.850702
H190	-2.485172	9.113550	2.303167
H191	-4.742703	7.013400	2.259697
H192	-4.633429	3.395000	6.450850
H193	-5.844586	3.737271	5.211917
H194	-3.106581	2.489280	4.683226
H195	-4.269216	0.340271	4.424736
H196	-4.582598	0.990347	6.040895
H197	-5.835151	1.097869	4.794118
H198	-4.046611	1.901722	2.435976
H199	-3.965477	3.650924	2.652619
H200	-5.517704	2.808652	2.814949
H201	-4.605599	5.774172	5.795328
H202	0.336962	5.644874	2.921606
H203	2.714644	4.833017	3.186626
H204	2.355631	4.329491	4.838489
H205	2.297379	6.047956	4.405894
H206	0.922971	3.310129	2.206940
H207	0.514120	2.717306	3.826809
H208	-0.744873	3.414952	2.789580
H209	-0.076941	4.413671	5.698415
H210	-4.957009	5.257285	-1.768658
H211	-4.708959	5.013274	-0.028103
H212	-3.147544	3.888443	-3.334747
H213	-0.065942	3.413085	-0.549877
H214	-5.076751	5.836748	-7.026516
H215	-6.284380	6.031233	-5.767526
H216	-6.968156	4.120141	-4.569669
H217	-3.069451	4.134230	-6.374378
H218	-6.593288	1.800600	-3.787568
H219	-2.640081	1.876564	-5.497074
H220	-4.414253	0.674496	-4.232939
H221	10.447266	2.214140	-1.821321
H222	10.223112	2.920346	-0.213520
H223	8.830664	0.345236	-1.160898
H224	8.799902	0.978020	0.471005
H225	11.276791	-0.075349	-0.973879
H226	12.382012	-0.011069	1.274876
H227	11.912689	1.611066	0.749038
H228	10.943131	0.759888	1.958947
H229	11.073537	-2.055795	0.535648
H230	9.616907	-1.882577	-0.458175
H231	9.594707	-1.383205	1.235230
H232	-0.698989	2.406115	-3.830680
H233	5.692214	7.163046	1.162772
H234	1.974336	7.618995	-1.271387
H235	1.354906	7.841295	0.371966
H236	-4.996705	8.742474	2.598297
H237	-9.983993	-2.020680	-3.131289
H238	3.281982	0.360428	-6.982053
H239	6.495654	0.516030	-3.324258
H240	3.669713	4.001696	-3.206331
H241	3.489913	-7.390627	2.046518
H242	0.325901	-8.222246	7.103732
H243	-6.472122	-2.993710	5.345640
H244	0.024678	6.134995	5.352369
H245	-3.412635	-5.922742	5.251670
H246	-1.920328	4.882859	0.566553
H247	-0.658497	0.949743	-4.292126
H248	-0.732545	-6.936962	6.486719
H249	-1.999700	5.379675	3.676012
H250	1.430442	-0.602931	-4.010504
H251	2.903053	6.196782	1.071697
H252	3.622568	0.553115	-2.721144
H253	8.844227	2.763369	-1.314356
H254	3.437176	-3.933973	0.003935
C255	0.151048	0.345626	1.630723
C256	0.977328	-0.084586	2.763842
H257	0.599356	0.127817	3.762635
H258	0.593403	0.517342	0.648053
C259	5.177191	-0.953043	2.656579
C260	4.446740	-1.118381	3.834723
C261	4.544274	-0.474507	1.507476
C262	3.085170	-0.817172	3.852457
H263	4.933786	-1.477826	4.737181
C264	3.182753	-0.167914	1.519838
H265	5.110464	-0.335442	0.592195
C266	2.440235	-0.352570	2.696048
H267	2.514627	-0.937274	4.770630
H268	2.708562	0.240298	0.629392
H269	-0.756387	0.905122	1.847553
H270	6.237652	-1.188556	2.634281
H271	-4.063395	6.451581	-0.806006
H272	-4.069180	7.736188	3.720894
H273	-4.190726	5.346519	4.128692
H274	-8.584762	-0.962468	-3.382331
H275	-1.266801	-3.474514	-7.193145
C276	-4.308643	6.727666	-5.216478
H277	-3.257311	6.485883	-5.397045
H278	-4.485055	7.753921	-5.558356
H279	-4.466801	6.694158	-4.134516