279

C1	2.964047	0.443222	-5.938796
C2	2.039023	-0.776099	-5.929186
O3	1.756595	-1.380722	-6.966466
N4	1.531395	-1.142256	-4.710228
C5	0.515989	-2.190118	-4.618966
C6	-0.889346	-1.547907	-4.718472
O7	-1.142331	-0.502990	-4.109411
C8	0.671296	-2.936746	-3.269152
C9	-0.238229	-4.136383	-3.122603
C10	0.143924	-5.386462	-3.633535
C11	-1.485825	-4.029377	-2.491436
C12	-0.698289	-6.495245	-3.530893
C13	-2.331785	-5.135135	-2.389457
C14	-1.943618	-6.371336	-2.910452
N15	-1.849447	-2.152157	-5.463168
C16	-1.741011	-3.389974	-6.246096
C17	-3.195849	-3.697081	-6.628417
C18	-3.830297	-2.302187	-6.743045
C19	-3.173073	-1.524529	-5.595573
C20	3.887830	3.101987	-2.310927
C21	5.101074	2.157496	-2.378749
O22	6.248137	2.602684	-2.259314
C23	2.500112	2.512451	-2.606696
C24	2.097738	1.406191	-1.607906
O25	1.896184	1.748525	-0.422589
O26	2.050810	0.197168	-2.056856
N27	4.860605	0.830327	-2.589803
C28	5.957391	-0.129192	-2.652843
C29	5.509626	-1.496958	-3.215379
C30	5.220337	-2.537921	-2.171220
C31	4.098685	-2.639908	-1.382525
C32	6.103334	-3.599602	-1.761671
C33	5.443779	-4.319245	-0.723100
C34	7.384265	-4.018228	-2.164362
N35	4.229166	-3.708949	-0.515134
C36	6.024188	-5.431200	-0.102474
C37	7.967003	-5.118010	-1.545148
C38	7.291252	-5.818880	-0.524344
C39	10.134355	1.847151	-0.829256
C40	9.749328	0.489376	-0.230691
C41	10.928237	-0.404838	0.199165
C42	11.782160	0.239587	1.301765
C43	10.425510	-1.786157	0.644370
C44	2.805561	8.076383	0.035479
C45	4.211415	7.734170	0.500262
O46	5.177916	8.453510	0.250203
N47	4.326239	6.554153	1.184193
C48	5.607678	6.048043	1.652123
C49	6.101276	4.773997	0.938479
C50	7.573746	4.522673	1.293138
C51	5.250617	3.542234	1.274875
C52	-3.013488	-4.902833	4.963941
C53	-2.462169	-4.631256	3.710761
C54	-2.576164	-4.167289	6.071403
C55	-1.482756	-3.651596	3.556442
C56	-1.596898	-3.185918	5.932662
C57	-1.033677	-2.927705	4.672576
O58	-0.064298	-1.981740	4.604039
C59	0.250165	-7.482945	6.406487
C60	1.448765	-6.767117	7.045333
C61	1.643764	-5.380187	6.404352
C62	2.709371	-7.640892	6.960315
C63	2.705519	-4.496140	7.066594
C64	-8.774225	-1.254402	-2.672713
C65	-8.118165	-2.592447	-3.042748
C66	-8.796346	-3.753886	-2.288810
C67	-6.603928	-2.535800	-2.791199
C68	-8.320944	-5.152906	-2.695928
C69	-6.620168	-3.446673	4.570216
C70	-7.462386	-2.714277	3.552416
C71	-8.495846	-3.360426	2.863632
C72	-7.218494	-1.362222	3.264855
C73	-9.265676	-2.681539	1.915778
C74	-7.982920	-0.679911	2.319140
C75	-9.012831	-1.337451	1.640989
C76	2.795654	-6.729218	1.677332
C77	2.786168	-5.514592	2.365066
C78	1.936801	-6.896784	0.585241
C79	1.935346	-4.476293	1.973820
C80	1.082655	-5.875357	0.182852
C81	1.073758	-4.652081	0.875477
O82	0.222409	-3.693861	0.444947
C83	-3.593703	8.049363	3.057069
C84	-2.280509	8.317822	2.317129
C85	-1.320160	7.105471	2.228450
O86	-1.873560	5.943694	2.298857
O87	-0.107858	7.336787	2.075524
C88	-3.550779	5.078124	5.472865
C89	-2.083049	4.909237	5.911733
O90	-1.812509	4.597177	7.076971
C91	-4.352884	3.783806	5.684496
C92	-3.961190	2.619034	4.753717
C93	-4.688939	1.334264	5.176739
C94	-4.224882	2.933296	3.272567
N95	-1.150777	5.113832	4.948665
C96	0.287629	5.035570	5.206064
C97	1.078822	4.578901	3.970464
C98	2.580760	4.641432	4.280017
C99	0.667503	3.174918	3.507205
C100	-3.698746	5.628554	-0.631632
C101	-2.491581	4.822315	-0.976539
C102	-2.146359	4.169949	-2.133693
N103	-1.446258	4.592691	-0.105565
C104	-0.533782	3.825380	-0.759400
N105	-0.924097	3.548208	-1.996996
C106	-4.700705	6.195974	-5.606211
C107	-4.617745	4.725812	-5.254245
C108	-3.450830	3.988413	-5.498876
C109	-5.705814	4.068879	-4.665117
C110	-3.353510	2.644110	-5.137858
C111	-5.627211	2.718035	-4.320929
C112	-4.448778	2.007310	-4.548234
O113	-0.156061	2.204313	-4.520969
O114	0.537992	-1.462824	1.951781
H115	3.638257	0.473210	-5.079758
H116	2.337456	1.341914	-5.899123
H117	1.717834	-3.249900	-3.197954
H118	0.495909	-2.219587	-2.461852
H119	1.116532	-5.489390	-4.109253
H120	-1.786836	-3.076356	-2.066385
H121	-0.379578	-7.455095	-3.929552
H122	-3.290670	-5.031090	-1.888955
H123	-2.600099	-7.233187	-2.823641
H124	0.687325	-2.865947	-5.458525
H125	-3.266978	-4.287408	-7.546736
H126	-3.675038	-4.264849	-5.822679
H127	-3.565038	-1.846533	-7.704038
H128	-4.921271	-2.313167	-6.667264
H129	-3.066273	-0.456261	-5.793112
H130	-3.735537	-1.633300	-4.658619
H131	-1.291358	-4.193421	-5.659631
H132	2.440028	2.138249	-3.628912
H133	1.763348	3.315342	-2.522938
H134	3.892191	3.531083	-1.304095
H135	6.300945	-1.876196	-3.872183
H136	4.634500	-1.351503	-3.858358
H137	3.224627	-1.999856	-1.364977
H138	7.913737	-3.487070	-2.951538
H139	8.957057	-5.446218	-1.851252
H140	5.496230	-5.970291	0.678056
H141	7.769245	-6.676890	-0.058619
H142	6.414448	-0.266672	-1.663071
H143	2.740415	9.158542	-0.088679
H144	6.037632	4.947650	-0.143075
H145	7.949473	3.634210	0.776590
H146	8.205183	5.371863	1.007547
H147	7.698362	4.361096	2.372444
H148	5.600309	2.672590	0.710944
H149	4.192986	3.676963	1.025127
H150	5.314925	3.303363	2.344852
H151	5.552721	5.860646	2.734768
H152	-2.789542	-5.187842	2.836961
H153	-3.001773	-4.357753	7.053447
H154	-1.070175	-3.456825	2.574342
H155	-1.252408	-2.605276	6.782466
H156	0.236120	-1.850718	3.678871
H157	1.220821	-6.610742	8.111986
H158	2.993781	-7.808936	5.914027
H159	3.563789	-7.181512	7.467448
H160	2.541355	-8.622545	7.418936
H161	1.883685	-5.510614	5.339925
H162	0.683315	-4.852914	6.423067
H163	2.500576	-4.364058	8.136246
H164	3.713550	-4.914821	6.972731
H165	2.717183	-3.502084	6.608988
H166	0.432946	-7.668552	5.341181
H167	-8.276685	-2.759252	-4.120010
H168	-6.091329	-3.438042	-3.138945
H169	-6.153723	-1.683284	-3.311132
H170	-6.388467	-2.420507	-1.722417
H171	-8.641122	-3.613304	-1.209808
H172	-9.881236	-3.686897	-2.451364
H173	-8.450603	-5.317946	-3.772451
H174	-7.263192	-5.308212	-2.462845
H175	-8.888288	-5.929416	-2.171342
H176	-8.639188	-1.037595	-1.606416
H177	-5.594915	-3.593621	4.216087
H178	-7.038202	-4.431959	4.798557
H179	-8.700189	-4.408073	3.072497
H180	-6.423319	-0.838151	3.788860
H181	-10.065451	-3.202815	1.396070
H182	-7.773761	0.365893	2.113497
H183	-9.613183	-0.805006	0.908793
H184	1.936949	-7.834329	0.035343
H185	3.448292	-5.361493	3.212850
H186	0.419257	-5.993624	-0.666837
H187	1.926873	-3.538590	2.519947
H188	0.322177	-2.863095	0.970651
H189	-2.494768	8.625007	1.282802
H190	-1.728138	9.149361	2.768437
H191	-4.110192	7.196083	2.612334
H192	-4.213288	3.474964	6.727553
H193	-5.424289	3.996329	5.551939
H194	-2.883294	2.443796	4.875861
H195	-4.384123	0.484720	4.554658
H196	-4.476756	1.077633	6.220832
H197	-5.776835	1.450352	5.076816
H198	-3.969610	2.077959	2.637778
H199	-3.638730	3.786272	2.919172
H200	-5.287546	3.161819	3.109906
H201	-3.972476	5.866726	6.107724
H202	0.859985	5.290905	3.162992
H203	3.173291	4.318846	3.417696
H204	2.841350	3.981178	5.118162
H205	2.894307	5.657919	4.544558
H206	1.210845	2.884348	2.601250
H207	0.877308	2.428098	4.285481
H208	-0.401904	3.137436	3.281121
H209	0.434951	4.347895	6.046923
H210	-4.431945	5.554024	-1.440448
H211	-4.170125	5.279968	0.293955
H212	-2.714574	4.105470	-3.047132
H213	0.382558	3.464194	-0.310440
H214	-4.526588	6.316258	-6.685466
H215	-5.724947	6.546633	-5.427483
H216	-6.619483	4.625265	-4.465552
H217	-2.584161	4.476536	-5.937567
H218	-6.479103	2.230278	-3.853120
H219	-2.395646	2.140313	-5.240800
H220	-4.368857	0.969055	-4.240361
H221	10.845457	1.726409	-1.656524
H222	10.593848	2.511742	-0.089984
H223	9.149779	-0.060413	-0.967053
H224	9.087493	0.646250	0.632702
H225	11.572923	-0.547960	-0.682747
H226	12.613787	-0.413929	1.591204
H227	12.207253	1.196897	0.984425
H228	11.179301	0.425134	2.199669
H229	11.257832	-2.449906	0.907434
H230	9.838157	-2.275885	-0.139395
H231	9.780956	-1.698530	1.527552
H232	-0.313759	2.672207	-3.670251
H233	6.315807	6.864344	1.489226
H234	2.629659	7.613391	-0.942494
H235	2.015174	7.738219	0.714464
H236	-4.260222	8.921380	3.023367
H237	-9.851088	-1.264775	-2.878170
H238	3.532489	0.436032	-6.869454
H239	6.732979	0.314549	-3.286360
H240	4.116158	3.925497	-2.996895
H241	3.458855	-7.531249	1.986362
H242	0.058954	-8.451438	6.884980
H243	-6.550168	-2.884221	5.507451
H244	0.661730	6.019151	5.527980
H245	-3.770487	-5.672366	5.079384
H246	-1.399539	4.977608	0.854931
H247	-0.309221	1.274739	-4.287121
H248	-0.660432	-6.880089	6.479577
H249	-1.445946	5.377478	3.998946
H250	1.682045	-0.550512	-3.881858
H251	3.483799	6.037526	1.390128
H252	3.906669	0.470454	-2.505266
H253	9.245671	2.347240	-1.226915
H254	3.538103	-3.997438	0.162972
C255	-0.190524	-0.182118	1.705671
C256	1.172473	-0.346704	1.210783
H257	1.989193	0.130080	1.740687
H258	-0.306657	0.356524	2.645087
C259	-1.417970	-0.251714	0.866264
C260	-2.636391	-0.566286	1.488963
C261	-1.390386	0.011089	-0.508364
C262	-3.812570	-0.630649	0.745915
H263	-2.655912	-0.766446	2.557412
C264	-2.573480	-0.042892	-1.250449
H265	-0.460237	0.279594	-0.997874
C266	-3.779068	-0.365106	-0.626143
H267	-4.750989	-0.879117	1.234220
H268	-2.533034	0.170576	-2.312157
H269	-4.698983	-0.394589	-1.204323
H270	1.353970	-0.547319	0.160594
H271	-3.461260	6.689424	-0.481954
H272	-3.410964	7.811743	4.109695
H273	-3.610504	5.420287	4.437463
H274	-8.332734	-0.425460	-3.236426
H275	-1.119036	-3.223049	-7.136263
C276	-3.717735	7.113402	-4.853782
H277	-2.679909	6.816175	-5.029790
H278	-3.833099	8.152642	-5.181110
H279	-3.886639	7.072503	-3.773594