290

C1	3.055197	7.883838	-0.232005
C2	3.917048	7.349947	0.923210
O3	3.955303	7.930376	2.006800
N4	4.690086	6.265978	0.659237
C5	5.703137	5.832791	1.601348
C6	6.134418	4.375185	1.363307
C7	7.384961	4.060308	2.195613
C8	5.005754	3.380332	1.668093
C9	3.342763	0.072795	-5.966739
C10	2.330107	-1.074479	-6.006594
O11	2.067099	-1.669265	-7.051104
N12	1.732626	-1.383884	-4.813804
C13	0.751271	-2.454977	-4.716163
C14	-0.697060	-1.899384	-4.763833
O15	-1.048747	-0.968876	-4.017792
C16	0.949135	-3.222919	-3.383056
C17	0.023465	-4.409701	-3.224344
C18	0.379890	-5.666254	-3.737217
C19	-1.215619	-4.279869	-2.579274
C20	-0.478218	-6.761077	-3.618889
C21	-2.077143	-5.372372	-2.461994
C22	-1.713137	-6.615903	-2.982940
N23	-1.601102	-2.454898	-5.594801
C24	-1.441564	-3.644074	-6.436271
C25	-2.885453	-4.091533	-6.700897
C26	-3.661269	-2.766345	-6.726123
C27	-2.980791	-1.938491	-5.627865
C28	4.131313	2.814583	-2.368874
C29	5.310926	1.832284	-2.363339
O30	6.463373	2.256489	-2.256970
C31	2.758863	2.323696	-2.810053
C32	2.176116	1.283961	-1.829355
O33	1.980344	1.647819	-0.655859
O34	1.937832	0.111157	-2.310031
N35	5.041833	0.500922	-2.487634
C36	6.126617	-0.478221	-2.498049
C37	5.633292	-1.889251	-2.888906
C38	5.370374	-2.803405	-1.726978
C39	4.197301	-2.970136	-1.030373
C40	6.342262	-3.660908	-1.094471
N41	4.379911	-3.882301	-0.009299
C42	5.680817	-4.327098	-0.024167
C43	7.701958	-3.936636	-1.324223
C44	6.334857	-5.250942	0.798847
C45	8.356667	-4.850504	-0.506497
C46	7.678289	-5.501807	0.545199
C47	10.245863	1.442655	-0.492941
C48	9.916506	0.218066	0.368107
C49	11.134027	-0.533764	0.940463
C50	11.975681	0.340126	1.882219
C51	10.688965	-1.821304	1.649551
C52	2.351238	6.846062	-1.116495
O53	1.495014	5.990833	-0.399941
C54	-4.344008	-5.967155	4.807858
C55	-3.485765	-4.739689	4.624438
C56	-2.760804	-4.538525	3.443448
C57	-3.362579	-3.775772	5.635152
C58	-1.934980	-3.430562	3.270850
C59	-2.541280	-2.661042	5.483166
C60	-1.813570	-2.486220	4.299864
O61	-1.013905	-1.389941	4.201500
C62	-0.290200	-7.404848	6.422035
C63	0.670642	-6.331250	6.954810
C64	0.481987	-5.015876	6.175398
C65	2.119719	-6.838772	6.920659
C66	1.262368	-3.812400	6.714513
C67	-8.605370	-1.219475	-3.338361
C68	-7.955586	-2.601239	-3.502662
C69	-8.609792	-3.623147	-2.551617
C70	-6.435019	-2.507041	-3.305713
C71	-8.160735	-5.074484	-2.752963
C72	-6.929926	-3.248116	4.076725
C73	-7.651037	-2.315397	3.132073
C74	-8.519888	-2.804343	2.148980
C75	-7.452584	-0.928360	3.207636
C76	-9.167674	-1.939626	1.263477
C77	-8.093468	-0.060219	2.323972
C78	-8.954413	-0.563337	1.345259
C79	3.118977	-8.167701	2.327379
C80	2.415498	-6.908292	1.877724
C81	2.495600	-5.717280	2.606732
C82	1.671014	-6.888552	0.687581
C83	1.871041	-4.542616	2.167953
C84	1.046083	-5.734762	0.231984
C85	1.148531	-4.544179	0.967192
O86	0.538721	-3.439474	0.461326
C87	-3.504382	8.114449	2.413680
C88	-1.972105	8.193271	2.377879
C89	-1.328943	7.159334	1.443739
O90	-1.674911	5.934591	1.636543
O91	-0.522522	7.553635	0.572695
C92	-3.681851	5.217157	4.911754
C93	-2.231847	5.031919	5.406478
O94	-1.993373	4.836612	6.601434
C95	-4.691640	4.461921	5.784081
C96	-4.568407	2.925914	5.770034
C97	-5.524663	2.308831	6.800911
C98	-4.813678	2.322046	4.379744
N99	-1.250908	5.121324	4.470883
C100	0.162870	5.066641	4.868874
C101	1.128252	5.446928	3.743442
C102	2.513611	5.742041	4.335313
C103	1.204350	4.362234	2.659413
C104	-3.465769	5.587275	-1.204297
C105	-2.335193	4.648253	-1.421875
N106	-1.320058	4.479967	-0.499188
C107	-2.038299	3.843705	-2.483186
C108	-0.430802	3.611257	-0.983174
N109	-0.851388	3.207916	-2.188211
C110	-3.202514	6.944363	-5.461136
C111	-4.165993	6.030617	-6.242696
C112	-4.063726	4.572816	-5.847481
C113	-2.948050	3.807989	-6.219632
C114	-5.058490	3.961385	-5.072712
C115	-2.817437	2.480146	-5.812654
C116	-4.938746	2.629953	-4.668776
C117	-3.813579	1.888545	-5.030611
O118	0.099144	1.446384	-4.027195
H119	3.897164	0.123063	-5.027247
H120	2.807109	1.019568	-6.096143
H121	1.992565	-3.552375	-3.350168
H122	0.805393	-2.515343	-2.560997
H123	1.345466	-5.787744	-4.222658
H124	-1.497195	-3.320785	-2.154953
H125	-0.179213	-7.727170	-4.016407
H126	-3.027802	-5.253124	-1.949821
H127	-2.380248	-7.467555	-2.883355
H128	0.928323	-3.110336	-5.570074
H129	-2.977358	-4.669474	-7.624304
H130	-3.230919	-4.717580	-5.870966
H131	-3.538970	-2.275592	-7.698311
H132	-4.732562	-2.887629	-6.545768
H133	-2.978144	-0.867039	-5.839067
H134	-3.450213	-2.082335	-4.647417
H135	-0.863252	-4.414680	-5.925003
H136	2.795431	1.924242	-3.825500
H137	2.086780	3.188423	-2.823101
H138	4.047109	3.199265	-1.345611
H139	6.394138	-2.351148	-3.528985
H140	4.737594	-1.799342	-3.514987
H141	3.240847	-2.484527	-1.171007
H142	8.236704	-3.441993	-2.130969
H143	9.406508	-5.070893	-0.678856
H144	5.808714	-5.749570	1.607766
H145	8.215917	-6.210847	1.168541
H146	6.621822	-0.510572	-1.519564
H147	9.327235	-0.487824	-0.231524
H148	9.262816	0.520537	1.199131
H149	11.772693	-0.821450	0.090145
H150	12.834237	-0.217038	2.274412
H151	12.361502	1.231993	1.379103
H152	11.377940	0.673828	2.739810
H153	11.549344	-2.394969	2.013549
H154	10.107986	-2.467762	0.983076
H155	10.056214	-1.590458	2.515550
H156	10.710968	2.243596	0.090976
H157	0.739171	6.528573	-0.051330
H158	-4.838810	-6.255713	3.874418
H159	-5.121651	-5.804566	5.560982
H160	-2.838867	-5.264162	2.637180
H161	-3.920801	-3.898832	6.560759
H162	-1.390308	-3.297925	2.341220
H163	-2.450567	-1.916091	6.267169
H164	-0.595534	-1.362956	3.315220
H165	0.409128	-6.136345	8.006873
H166	2.226000	-7.772382	7.485065
H167	2.434959	-7.038916	5.888630
H168	2.818909	-6.113320	7.347789
H169	0.750008	-5.186114	5.123594
H170	-0.584971	-4.765601	6.172135
H171	1.027474	-3.627529	7.769861
H172	2.346449	-3.950101	6.637898
H173	1.003098	-2.906854	6.156788
H174	-8.142747	-2.940932	-4.533442
H175	-5.935578	-3.464657	-3.482764
H176	-5.998422	-1.775385	-3.995010
H177	-6.188986	-2.187791	-2.285826
H178	-8.412678	-3.317941	-1.514478
H179	-9.699265	-3.568894	-2.682858
H180	-8.331148	-5.402431	-3.785397
H181	-7.097005	-5.208657	-2.533740
H182	-8.716049	-5.751509	-2.095399
H183	-8.457247	-0.838576	-2.320527
H184	-5.861664	-3.307433	3.842252
H185	-7.339145	-4.261260	4.025959
H186	-8.692209	-3.875603	2.077085
H187	-6.789799	-0.524676	3.969123
H188	-9.842908	-2.342790	0.513658
H189	-7.923261	1.009824	2.403580
H190	-9.459796	0.111805	0.660489
H191	2.473226	-9.046523	2.224018
H192	3.426145	-8.101728	3.375507
H193	3.053980	-5.694222	3.539234
H194	1.584046	-7.798944	0.098851
H195	1.940027	-3.632553	2.758110
H196	0.479413	-5.730407	-0.691684
H197	0.688225	-2.652478	1.022996
H198	-1.633648	9.187318	2.073828
H199	-1.579578	8.004863	3.385654
H200	-3.934084	8.371390	1.438260
H201	-4.557156	4.806320	6.814801
H202	-5.709332	4.743791	5.476724
H203	-3.543609	2.681939	6.076562
H204	-4.725993	1.229675	4.410387
H205	-4.096142	2.683278	3.637250
H206	-5.821302	2.567545	4.017661
H207	-5.423430	1.218014	6.835927
H208	-5.327056	2.695900	7.806293
H209	-6.570417	2.536702	6.555238
H210	-3.901877	6.291195	4.962048
H211	0.764623	6.372264	3.278123
H212	1.766186	4.713720	1.790024
H213	1.693424	3.461829	3.053175
H214	0.205410	4.080318	2.313062
H215	3.188561	6.130088	3.569657
H216	2.955133	4.836806	4.772304
H217	2.452926	6.498319	5.126022
H218	0.397645	4.057799	5.238680
H219	-4.192004	5.493227	-2.015277
H220	-3.971992	5.389403	-0.254609
H221	-2.563592	3.672645	-3.406070
H222	-0.405825	2.511293	-2.829062
H223	0.488398	3.283020	-0.516647
H224	-3.958201	6.131923	-7.315921
H225	-5.195660	6.376116	-6.094091
H226	-2.164923	4.262792	-6.821419
H227	-5.933430	4.536927	-4.779554
H228	-1.926953	1.919030	-6.079623
H229	-5.715824	2.178277	-4.058614
H230	-3.695895	0.867035	-4.684644
H231	-2.161868	6.640307	-5.609116
H232	-0.551335	0.726933	-4.142902
H233	0.802993	0.949787	-3.558031
H234	3.660765	-4.192529	0.628831
H235	4.084199	0.166498	-2.444331
H236	1.919256	-0.823671	-3.976184
H237	-1.303972	5.035157	0.428641
H238	-1.481847	5.337205	3.498228
H239	-3.110918	6.623256	-1.168765
H240	-3.406590	6.904843	-4.386798
H241	-3.300799	7.984706	-5.788207
H242	-0.200875	-8.341088	6.985341
H243	-1.331126	-7.069645	6.484810
H244	-0.078134	-7.627411	5.369223
H245	-3.751753	-6.831610	5.136279
H246	4.021069	-8.359146	1.732590
H247	9.336111	1.847254	-0.948308
H248	10.935128	1.180354	-1.305067
H249	-3.919873	8.810167	3.151013
H250	0.294330	5.736775	5.726972
H251	-7.008381	-2.903413	5.113446
H252	-8.173295	-0.489986	-4.032209
H253	-9.684515	-1.260417	-3.524350
H254	4.031570	-0.052127	-6.803022
H255	-0.921955	-3.383646	-7.367943
H256	6.877307	-0.118270	-3.209526
C257	-0.262244	-0.247408	0.591254
C258	0.472858	0.405042	1.678613
O259	0.232775	-1.031995	1.748376
H260	0.330366	-0.432963	-0.302849
H261	-0.068340	0.970042	2.434606
H262	1.498581	0.698009	1.480709
C263	-1.732637	-0.181344	0.377724
C264	-2.652070	-0.105879	1.434078
C265	-2.203346	-0.199638	-0.941912
C266	-4.019066	-0.051265	1.170130
H267	-2.304633	-0.112357	2.462193
C268	-3.573320	-0.131730	-1.200818
H269	-1.499820	-0.268076	-1.766142
C270	-4.484581	-0.060510	-0.147287
H271	-4.725852	-0.009165	1.992766
H272	-3.922431	-0.145477	-2.229154
H273	-5.552492	-0.018143	-0.342856
H274	-3.832029	7.104612	2.666147
H275	-3.758628	4.939817	3.854666
H276	4.465305	3.652453	-2.990279
H277	6.406892	4.264532	0.301903
H278	7.176927	4.159940	3.268184
H279	7.723687	3.035012	2.016019
H280	8.212902	4.735108	1.950985
H281	4.732398	3.419480	2.729487
H282	4.101329	3.588336	1.089682
H283	5.318882	2.356905	1.437570
H284	6.583059	6.491830	1.535094
H285	5.301357	5.954296	2.610795
H286	4.664228	5.840789	-0.255123
H287	2.306857	8.533827	0.229413
H288	3.700080	8.519136	-0.856874
H289	1.814607	7.387912	-1.913832
H290	3.086260	6.208917	-1.630481