290

C1	2.880681	7.890321	-0.121659
C2	2.536292	0.403735	-6.271237
C3	1.470109	-0.694126	-6.271501
C4	3.820796	7.278464	0.929074
O5	3.917311	7.747638	2.060311
O6	1.048762	-1.174368	-7.324113
N7	1.018505	-1.105959	-5.045642
N8	4.585768	6.234414	0.517745
C9	-0.001470	-2.143813	-4.950627
C10	-1.413396	-1.517238	-4.889536
O11	-1.652019	-0.554410	-4.137852
C12	0.237295	-3.037738	-3.706616
C13	-0.656693	-4.258438	-3.669600
C14	-0.277627	-5.438514	-4.326223
C15	-1.891647	-4.231334	-3.007288
C16	-1.113432	-6.556970	-4.334670
C17	-2.732515	-5.345219	-3.017505
C18	-2.348021	-6.511120	-3.683694
N19	-2.409359	-2.047334	-5.629932
C20	-2.351008	-3.197679	-6.547628
C21	-3.826051	-3.572067	-6.738421
C22	-4.546858	-2.218954	-6.644426
C23	-3.765131	-1.475557	-5.552439
C24	3.670502	2.928920	-2.607615
C25	4.829955	1.928631	-2.761387
O26	5.992936	2.337566	-2.724191
C27	2.224696	2.460853	-2.864451
C28	1.720222	1.288776	-1.994567
O29	1.331757	1.570607	-0.815338
O30	1.723435	0.125080	-2.489693
N31	4.524529	0.613029	-2.932564
C32	5.577244	-0.386275	-3.074877
C33	5.034315	-1.773391	-3.486900
C34	4.838040	-2.737724	-2.352276
C35	3.657858	-3.097131	-1.747185
C36	5.875273	-3.483095	-1.681637
C37	5.242819	-4.274085	-0.679939
C38	7.270622	-3.571602	-1.832777
N39	3.893168	-4.019597	-0.747701
C40	5.963730	-5.130850	0.159591
C41	7.989723	-4.422762	-1.001433
C42	7.341390	-5.192956	-0.012905
C43	9.884987	1.349039	-1.311792
C44	9.587189	0.255059	-0.279981
C45	10.821921	-0.478536	0.278690
C46	11.781878	0.464269	1.019557
C47	10.394466	-1.639145	1.189181
C48	5.621905	5.695442	1.377204
C49	6.182309	4.373019	0.830786
C50	7.507239	4.028096	1.523552
C51	5.176365	3.222717	0.968637
C52	2.062621	6.900354	-0.963745
O53	1.249128	6.050590	-0.191463
C54	-4.390499	-6.086399	4.754639
C55	-3.555411	-4.880307	4.380506
C56	-2.992145	-4.751533	3.103697
C57	-3.300362	-3.852698	5.300700
C58	-2.209716	-3.653406	2.748067
C59	-0.252349	-7.681755	5.953935
C60	-2.522429	-2.746654	4.965307
C61	-1.966762	-2.633057	3.681477
C62	0.778231	-6.734273	6.585998
C63	0.845731	-5.410063	5.799751
O64	-1.242442	-1.523060	3.405543
C65	2.145190	-7.426324	6.697083
C66	1.743589	-4.331853	6.415702
C67	-9.187289	-0.822654	-2.751409
C68	-8.085591	-1.891652	-2.703476
C69	-8.594969	-3.161174	-1.991697
C70	-6.813884	-1.326093	-2.053427
C71	-7.633602	-4.353915	-2.032590
C72	-6.966817	-3.286508	4.383269
C73	-7.803243	-2.440443	3.452462
C74	-9.037812	-2.890656	2.969035
C75	-7.358103	-1.172025	3.049393
C76	-9.809859	-2.101725	2.112744
C77	-8.124436	-0.379420	2.196263
C78	-9.356398	-0.840992	1.723888
C79	2.799202	-8.277068	1.560062
C80	1.996903	-7.077304	1.110852
C81	2.049009	-5.858689	1.796983
C82	1.180414	-7.137701	-0.028999
C83	1.327470	-4.737851	1.370080
C84	-3.437979	8.088418	3.057965
C85	0.456922	-6.036906	-0.473585
C86	-1.921462	8.225750	2.865407
C87	0.524104	-4.814559	0.218583
C88	-1.365798	7.227132	1.847271
O89	-0.191472	-3.769924	-0.255514
O90	-1.636047	5.987078	2.080068
O91	-0.717203	7.645798	0.865653
C92	-3.478016	5.061582	5.403375
C93	-2.009026	4.823577	5.804197
O94	-1.713447	4.502336	6.957349
C95	-4.429310	4.089185	6.114054
C96	-4.230725	2.599396	5.772298
C97	-5.144465	1.728055	6.646139
C98	-4.453522	2.290572	4.284524
N99	-1.092571	4.997046	4.816316
C100	0.346906	4.847117	5.039568
C101	1.078380	4.323794	3.794008
C102	2.594864	4.400218	4.013085
C103	0.633185	2.902058	3.429905
C104	-3.745964	5.764564	-0.681280
C105	-2.640432	4.809943	-0.961608
C106	-2.401779	4.016161	-2.047012
N107	-1.586384	4.619018	-0.087879
C108	-0.729672	3.753768	-0.625048
N109	-1.208615	3.364984	-1.812907
C110	-4.838602	6.497997	-5.615535
C111	-4.760089	5.024091	-5.276990
C112	-3.836200	4.187259	-5.919335
C113	-5.586545	4.464494	-4.292213
C114	-3.729423	2.838157	-5.574738
C115	-5.481736	3.116969	-3.941448
C116	-4.544890	2.299387	-4.575390
O117	0.208502	-1.609792	1.108868
H118	3.121688	0.438887	-5.350446
H119	2.042323	1.372807	-6.400565
H120	1.286115	-3.348198	-3.737615
O121	-0.571325	1.897581	-4.047605
H122	0.099154	-2.438050	-2.802452
H123	0.685980	-5.481928	-4.828496
H124	-2.180091	-3.339511	-2.460324
H125	-0.797392	-7.463733	-4.843063
H126	-3.681182	-5.308077	-2.489271
H127	-2.998816	-7.380998	-3.683282
H128	0.093413	-2.739274	-5.860108
H129	-4.000523	-4.094722	-7.682682
H130	-4.142591	-4.229602	-5.921688
H131	-4.465227	-1.682334	-7.596481
H132	-5.609034	-2.308934	-6.402076
H133	-3.728624	-0.395299	-5.710068
H134	-4.181680	-1.648082	-4.552515
H135	-1.772931	-4.016185	-6.118962
H136	2.093916	2.175694	-3.909250
H137	1.574812	3.320705	-2.681004
H138	3.749564	3.322615	-1.588724
H139	5.746592	-2.211668	-4.197294
H140	4.098309	-1.649870	-4.043569
H141	2.654928	-2.754331	-1.953850
H142	7.781622	-2.984595	-2.591546
H143	9.067491	-4.501062	-1.114301
H144	5.460610	-5.723445	0.917958
H145	7.929835	-5.847121	0.624298
H146	6.151339	-0.470899	-2.143379
H147	6.395534	4.510462	-0.240773
H148	7.914551	3.088111	1.137360
H149	8.259434	4.809653	1.368772
H150	7.363542	3.910077	2.604670
H151	5.505653	2.348907	0.399245
H152	4.181537	3.504921	0.610130
H153	5.068148	2.919905	2.016001
H154	5.203238	5.553343	2.379050
H155	0.438163	-6.498377	7.606702
H156	0.519340	6.597411	0.191030
H157	2.544082	-7.658856	5.701385
H158	-5.019015	-6.414199	3.919593
H159	-5.048180	-5.868438	5.602116
H160	2.882105	-6.802970	7.212700
H161	-3.167563	-5.527874	2.361924
H162	2.066226	-8.369798	7.249486
H163	-3.723884	-3.915472	6.301099
H164	1.178949	-5.624121	4.774618
H165	-1.795749	-3.585031	1.747022
H166	-0.170731	-5.009125	5.703202
H167	-2.335315	-1.953763	5.682734
H168	1.430608	-4.092170	7.439203
H169	-0.769803	-1.582924	2.538930
H170	2.794001	-4.639389	6.454324
H171	1.696159	-3.407877	5.831078
H172	0.043311	-7.952781	4.933124
H173	-7.841508	-2.168365	-3.741717
H174	-5.981554	-2.035481	-2.088076
H175	-6.487634	-0.412287	-2.563314
H176	-6.990059	-1.075093	-1.000700
H177	-8.824453	-2.911336	-0.946652
H178	-9.547651	-3.457389	-2.451992
H179	-7.370399	-4.616800	-3.064434
H180	-6.703936	-4.148055	-1.493280
H181	-8.086753	-5.237884	-1.571886
H182	-9.468134	-0.510246	-1.738413
H183	-5.962915	-3.454604	3.981902
H184	-7.430082	-4.261673	4.559108
H185	-9.399323	-3.871879	3.267588
H186	-6.400965	-0.803521	3.409872
H187	-10.766301	-2.472119	1.753269
H188	-7.760611	0.601418	1.902858
H189	-9.957397	-0.221293	1.064165
H190	-1.652394	9.234340	2.540885
H191	-1.416775	8.037771	3.821733
H192	2.214621	-9.200979	1.488784
H193	-3.973447	8.312730	2.127875
H194	3.126974	-8.170551	2.598920
H195	-4.284548	4.217043	7.192097
H196	-5.466762	4.376900	5.888980
H197	2.661359	-5.773789	2.692084
H198	1.110897	-8.070890	-0.584450
H199	-3.192103	2.346646	6.021535
H200	1.368579	-3.810505	1.932349
H201	-4.979846	0.662068	6.452996
H202	-0.169305	-6.101542	-1.356303
H203	-4.964389	1.908012	7.711635
H204	-0.043616	-2.931101	0.291794
H205	-6.202722	1.941219	6.445665
H206	-4.296711	1.225444	4.080545
H207	-3.764505	2.846233	3.641377
H208	-5.477680	2.543904	3.978737
H209	-3.731214	6.087668	5.699719
H210	0.830606	4.985706	2.953078
H211	3.128064	3.996576	3.147764
H212	2.897644	3.816916	4.892117
H213	2.926173	5.434550	4.153995
H214	1.124607	2.562925	2.511729
H215	0.896335	2.192125	4.222649
H216	-0.450511	2.849541	3.284608
H217	0.474356	4.165217	5.886382
H218	-4.491930	5.721223	-1.478050
H219	-4.238513	5.539418	0.270107
H220	-2.972116	3.860526	-2.946569
H221	0.209444	3.421957	-0.211976
H222	-4.699344	6.630349	-6.695560
H223	-5.843539	6.870437	-5.384333
H224	-6.320716	5.094097	-3.794905
H225	-3.196826	4.597146	-6.697628
H226	-6.124962	2.707454	-3.168030
H227	-3.020307	2.200695	-6.098150
H228	-4.436189	1.259682	-4.284774
H229	10.479646	0.953563	-2.144521
H230	10.441149	2.185629	-0.876154
H231	8.920925	-0.489828	-0.734184
H232	9.023198	0.687717	0.559466
H233	11.366515	-0.905678	-0.578266
H234	12.644245	-0.084051	1.415776
H235	12.164876	1.256517	0.369022
H236	11.277632	0.944968	1.867389
H237	11.261906	-2.204286	1.549451
H238	9.729027	-2.334745	0.667163
H239	9.855994	-1.265599	2.069009
H240	-0.792820	0.939129	-3.988747
H241	-1.234040	2.252504	-4.653568
H242	6.433791	6.430681	1.483271
H243	-3.803214	8.781257	3.823949
H244	-10.089814	-1.198289	-3.246558
H245	3.191538	0.239577	-7.128042
H246	6.280259	-0.012833	-3.827761
H247	3.908029	3.761378	-3.277849
H248	-0.351548	-8.609091	6.530012
H249	-6.839611	-2.796363	5.355578
H250	0.782777	5.811955	5.338801
H251	-3.766483	-6.943547	5.041030
H252	3.698765	-8.418601	0.946853
H253	-1.490944	5.166418	0.863676
H254	-1.239300	-7.210401	5.895188
H255	-1.393169	5.316678	3.893232
H256	1.292872	-0.605204	-4.193975
H257	3.561547	0.290974	-2.844970
H258	8.954626	1.748509	-1.728782
H259	3.184961	-4.412353	-0.140857
C260	0.456064	-0.026622	0.193791
C261	1.426346	-1.013553	0.682192
H262	-0.071663	-0.250154	-0.718240
H263	0.047902	0.684231	0.896875
C264	4.398476	-0.124705	3.679392
C265	3.071568	-0.327586	4.060212
C266	4.748616	-0.202367	2.329756
C267	2.095249	-0.605658	3.101004
H268	2.791538	-0.274733	5.108734
C269	3.775368	-0.479489	1.370591
H270	5.780326	-0.057504	2.023117
C271	2.440380	-0.678001	1.746204
H272	1.071602	-0.783274	3.410729
H273	4.052446	-0.551613	0.322241
H274	5.156561	0.085296	4.428887
H275	1.904814	-1.567436	-0.130944
H276	-3.361708	6.788223	-0.612238
H277	-3.699942	7.073579	3.358813
H278	-3.587096	5.013458	4.315082
H279	-8.854210	0.069780	-3.292977
H280	-1.882124	-2.897110	-7.493804
C281	-3.796174	7.349527	-4.866734
H282	-2.778431	7.021103	-5.099330
H283	-3.883660	8.404868	-5.144513
H284	-3.927337	7.272017	-3.783159
H285	4.517671	5.898615	-0.430626
H286	2.201140	8.547053	0.427838
H287	3.484105	8.523538	-0.788723
H288	1.472156	7.480083	-1.693542
H289	2.727161	6.256919	-1.558644
H290	-0.789506	2.711059	-2.495926