290

C1	2.672273	8.042146	0.535805
C2	2.680002	1.032230	-6.160893
C3	1.667235	-0.113034	-6.236518
C4	3.657159	7.407481	1.530523
O5	3.725121	7.779939	2.699280
O6	1.234785	-0.514914	-7.317461
N7	1.269615	-0.654397	-5.043577
N8	4.483914	6.452015	1.031864
C9	0.304702	-1.747883	-5.019322
C10	-1.137246	-1.193573	-4.921709
O11	-1.411497	-0.269296	-4.136517
C12	0.588065	-2.703947	-3.832983
C13	-0.155044	-4.018304	-3.941652
C14	0.332738	-5.038080	-4.773550
C15	-1.346688	-4.246450	-3.240456
C16	-0.355484	-6.244160	-4.912434
C17	-2.040309	-5.450222	-3.379103
C18	-1.549385	-6.452057	-4.218005
N19	-2.118059	-1.746332	-5.666493
C20	-1.999758	-2.810659	-6.675018
C21	-3.456696	-3.202650	-6.951620
C22	-4.217928	-1.882849	-6.758495
C23	-3.495071	-1.228787	-5.573726
C24	3.711763	3.334991	-2.324506
C25	4.928115	2.426026	-2.580089
O26	6.062727	2.907351	-2.530417
C27	2.280602	2.809328	-2.570377
C28	1.873868	1.524754	-1.816010
O29	1.480219	1.648073	-0.610624
O30	1.972170	0.420646	-2.427079
N31	4.698461	1.113061	-2.843639
C32	5.796586	0.178363	-3.055087
C33	5.302757	-1.227655	-3.459751
C34	5.165340	-2.200650	-2.323781
C35	4.028195	-2.533343	-1.627875
C36	6.235540	-2.969928	-1.737715
C37	5.665325	-3.755006	-0.695041
C38	7.613926	-3.082541	-1.991896
N39	4.322924	-3.461089	-0.649200
C40	6.427939	-4.638957	0.076555
C41	8.375803	-3.956958	-1.224870
C42	7.787222	-4.728073	-0.200488
C43	10.019568	2.018578	-1.195930
C44	9.785547	0.826421	-0.261151
C45	11.061515	0.130022	0.251075
C46	11.932926	1.059033	1.109635
C47	10.705754	-1.146094	1.027774
C48	5.549439	5.900376	1.844680
C49	6.123259	4.610025	1.234913
C50	7.465270	4.263192	1.893316
C51	5.141794	3.434032	1.339372
C52	1.902953	7.062108	-0.363493
O53	1.175367	6.098565	0.359575
C54	-3.745366	-6.653331	4.389890
C55	-2.784513	-5.494288	4.230688
C56	-2.449814	-4.992564	2.966009
C57	-2.161378	-4.902573	5.340426
C58	-1.522941	-3.963754	2.799850
C59	0.489299	-8.096144	5.435665
C60	-1.232054	-3.874912	5.195775
C61	-0.888004	-3.400790	3.919020
C62	1.556066	-7.692664	6.463914
C63	2.119908	-6.296775	6.133284
O64	0.046018	-2.426691	3.837850
C65	2.652054	-8.764573	6.557855
C66	3.058803	-5.708192	7.191651
C67	-8.915401	-1.121331	-2.661685
C68	-8.303156	-2.521312	-2.815565
C69	-8.937825	-3.500689	-1.807478
C70	-6.773551	-2.458588	-2.677515
C71	-8.618361	-4.978362	-2.057756
C72	-6.479169	-3.984723	4.249935
C73	-7.003401	-2.914687	3.321776
C74	-8.379384	-2.777279	3.087817
C75	-6.129880	-2.022308	2.687481
C76	-8.870108	-1.773622	2.253179
C77	-6.614932	-1.012649	1.853631
C78	-7.987382	-0.883906	1.635109
C79	3.519550	-8.184283	0.987936
C80	2.680630	-6.963869	0.674668
C81	2.564752	-5.891540	1.566479
C82	1.997290	-6.857625	-0.546607
C83	1.813301	-4.749190	1.260338
C84	-3.611105	7.640156	3.765713
C85	1.246761	-5.734830	-0.873078
C86	-2.092779	7.806246	3.607770
C87	1.149575	-4.658659	0.025355
C88	-1.506946	6.926552	2.498504
O89	0.418011	-3.581368	-0.352959
O90	-1.731550	5.660939	2.610643
O91	-0.872534	7.461057	1.564644
C92	-3.454226	4.448018	5.875202
C93	-1.972366	4.232565	6.237982
O94	-1.650130	3.848762	7.363759
C95	-4.352850	3.342521	6.445423
C96	-4.156180	1.942087	5.832452
C97	-4.999891	0.908812	6.593221
C98	-4.483578	1.901119	4.332037
N99	-1.075694	4.517579	5.254783
C100	0.372335	4.479747	5.469268
C101	1.142594	3.966820	4.244181
C102	2.644776	4.206947	4.442544
C103	0.840152	2.490064	3.963996
C104	-3.830195	5.590577	-0.136637
C105	-2.669543	4.752339	-0.538545
C106	-2.397766	4.108651	-1.711597
N107	-1.603171	4.508375	0.306722
C108	-0.711975	3.749596	-0.328646
N109	-1.174736	3.491518	-1.556821
C110	-5.018165	6.629895	-4.993302
C111	-4.865295	5.142360	-4.752662
C112	-3.892525	4.399258	-5.437801
C113	-5.668067	4.475169	-3.816576
C114	-3.715599	3.038475	-5.179913
C115	-5.490923	3.115409	-3.551530
C116	-4.506539	2.392105	-4.226262
O117	0.431416	-1.558575	1.336501
H118	3.276810	1.022750	-5.246860
H119	2.137569	1.982749	-6.206617
H120	1.666481	-2.891381	-3.820767
O121	-0.429348	2.208240	-3.876862
H122	0.339881	-2.196143	-2.897566
H123	1.266263	-4.885612	-5.310177
H124	-1.719420	-3.484806	-2.563361
H125	0.044137	-7.022984	-5.556076
H126	-2.956229	-5.610457	-2.817354
H127	-2.084257	-7.392100	-4.319099
H128	0.429440	-2.278020	-5.965107
H129	-3.584635	-3.638465	-7.946007
H130	-3.783612	-3.942236	-6.212527
H131	-4.117092	-1.256103	-7.651870
H132	-5.285100	-2.021308	-6.566133
H133	-3.491801	-0.137733	-5.615821
H134	-3.936809	-1.519419	-4.611983
H135	-1.413316	-3.649167	-6.299374
H136	2.119117	2.623763	-3.632994
H137	1.598002	3.610687	-2.275108
H138	3.803326	3.658903	-1.281894
H139	6.018518	-1.637140	-4.183216
H140	4.353537	-1.137671	-4.000972
H141	3.021285	-2.160535	-1.748163
H142	8.079611	-2.495433	-2.779380
H143	9.440977	-4.052305	-1.417014
H144	5.969795	-5.232345	0.862444
H145	8.407593	-5.403083	0.382442
H146	6.416657	0.112766	-2.152248
H147	6.316634	4.794130	0.166643
H148	7.868634	3.329891	1.487602
H149	8.209676	5.050345	1.730245
H150	7.347283	4.132296	2.976130
H151	5.484160	2.588327	0.735137
H152	4.137652	3.710444	1.002869
H153	5.056799	3.093892	2.378071
H154	5.153367	5.714295	2.847852
H155	1.066619	-7.625719	7.448426
H156	0.418298	6.559212	0.799190
H157	3.187339	-8.856794	5.604171
H158	-4.454002	-6.702513	3.557073
H159	-4.324728	-6.571945	5.315927
H160	3.390304	-8.534009	7.332346
H161	-2.917738	-5.421088	2.082142
H162	2.223779	-9.745953	6.791614
H163	-2.411510	-5.249772	6.341113
H164	2.641491	-6.346651	5.166383
H165	-1.280571	-3.601575	1.806439
H166	1.277323	-5.611142	5.982619
H167	-0.763975	-3.416148	6.061198
H168	2.567185	-5.656147	8.170581
H169	0.187804	-2.125327	2.900574
H170	3.971928	-6.300945	7.311454
H171	3.361916	-4.691586	6.921562
H172	0.921344	-8.159397	4.429380
H173	-8.536614	-2.882500	-3.829453
H174	-6.305946	-3.436111	-2.831683
H175	-6.342954	-1.767728	-3.412020
H176	-6.487098	-2.106832	-1.679240
H177	-8.610320	-3.221100	-0.796924
H178	-10.027566	-3.364473	-1.826008
H179	-8.925936	-5.286877	-3.064249
H180	-7.548566	-5.187896	-1.959146
H181	-9.141435	-5.619401	-1.340545
H182	-8.736721	-0.730984	-1.652443
H183	-5.402125	-4.125115	4.131032
H184	-6.972514	-4.946416	4.071792
H185	-9.072414	-3.466011	3.566294
H186	-5.058921	-2.122031	2.843702
H187	-9.940168	-1.685524	2.084347
H188	-5.914956	-0.336028	1.373860
H189	-8.369014	-0.096049	0.991181
H190	-1.830343	8.845931	3.395432
H191	-1.600073	7.523341	4.546759
H192	3.009636	-9.107574	0.691947
H193	-4.137509	7.966910	2.861151
H194	3.739334	-8.253110	2.057803
H195	-4.152616	3.285227	7.520761
H196	-5.405288	3.638106	6.326057
H197	3.064219	-5.940769	2.531601
H198	2.057865	-7.674225	-1.263104
H199	-3.100012	1.669579	5.962621
H200	1.722091	-3.944759	1.984253
H201	-4.853137	-0.099161	6.190374
H202	0.727015	-5.669954	-1.821782
H203	-4.737903	0.888634	7.656670
H204	0.446150	-2.835070	0.313285
H205	-6.069661	1.142958	6.516315
H206	-4.331256	0.896889	3.922124
H207	-3.857370	2.589773	3.755891
H208	-5.532571	2.172857	4.154984
H209	-3.746843	5.407346	6.320978
H210	0.823246	4.556560	3.373778
H211	3.212370	3.811177	3.595950
H212	3.007194	3.707897	5.350562
H213	2.871450	5.275408	4.522337
H214	1.322802	2.163083	3.036522
H215	1.207361	1.851131	4.776332
H216	-0.237481	2.319396	3.872404
H217	0.550000	3.842743	6.341146
H218	-4.595766	5.571440	-0.915613
H219	-4.274120	5.234932	0.798474
H220	-2.956344	4.051464	-2.629752
H221	0.230798	3.391312	0.054160
H222	-4.890531	6.840780	-6.062241
H223	-6.039310	6.935730	-4.736860
H224	-6.439680	5.029789	-3.287513
H225	-3.270567	4.893001	-6.180881
H226	-6.116670	2.623433	-2.812660
H227	-2.966755	2.475320	-5.731967
H228	-4.336591	1.345865	-3.995370
H229	10.635794	1.729288	-2.056192
H230	10.526708	2.846528	-0.689404
H231	9.171580	0.081055	-0.783113
H232	9.188337	1.151397	0.603345
H233	11.653012	-0.164990	-0.630204
H234	12.831859	0.540848	1.462854
H235	12.258243	1.945623	0.556699
H236	11.379827	1.401768	1.993136
H237	11.606280	-1.682594	1.348718
H238	10.100254	-1.829551	0.423323
H239	10.127300	-0.904490	1.928167
H240	-0.639753	1.244769	-3.881659
H241	-1.040631	2.588654	-4.519402
H242	6.353463	6.643106	1.962103
H243	-3.988317	8.239057	4.601714
H244	-9.999170	-1.139879	-2.820993
H245	3.329169	0.969796	-7.035700
H246	6.443485	0.594643	-3.836359
H247	3.874554	4.228151	-2.936204
H248	0.057108	-9.075292	5.673082
H249	-6.661269	-3.719319	5.298849
H250	0.735237	5.485930	5.726137
H251	-3.217096	-7.615449	4.423100
H252	4.479928	-8.161748	0.457049
H253	-1.530743	4.952363	1.305233
H254	-0.323265	-7.363583	5.396399
H255	-1.407349	4.886917	4.360938
H256	1.535951	-0.212400	-4.158355
H257	3.754696	0.734975	-2.774295
H258	9.067413	2.397416	-1.581823
H259	3.643284	-3.899614	-0.041495
C260	-0.045532	-0.238697	1.136323
C261	1.186759	-0.181065	0.333462
H262	2.121026	-0.024305	0.850522
H263	0.001760	0.358308	2.053919
C264	-1.398092	-0.078948	0.487675
C265	-1.823322	-0.925865	-0.542485
C266	-2.261620	0.927106	0.935426
C267	-3.076823	-0.753518	-1.126887
H268	-1.179481	-1.734135	-0.871115
C269	-3.516901	1.103787	0.350876
H270	-1.950606	1.576248	1.749183
C271	-3.926575	0.263222	-0.685720
H272	-3.391187	-1.413783	-1.929453
H273	-4.171905	1.892022	0.710212
H274	-4.904401	0.393223	-1.141843
H275	1.199822	-0.641653	-0.641182
H276	-3.521226	6.628780	0.028485
H277	-3.871102	6.596273	3.946094
H278	-3.573418	4.555104	4.792591
H279	-8.482979	-0.412967	-3.377160
H280	-1.508255	-2.418768	-7.575278
C281	-4.016902	7.480630	-4.189475
H282	-2.984681	7.218625	-4.441941
H283	-4.156450	8.546452	-4.397260
H284	-4.141812	7.325447	-3.113509
H285	4.442180	6.207900	0.054209
H286	1.963018	8.614415	1.139313
H287	3.227430	8.755715	-0.090697
H288	1.252115	7.650434	-1.032342
H289	2.595531	6.516515	-1.020924
H290	-0.745482	2.907986	-2.295982