279

C1	3.120770	0.102843	-5.871604
C2	2.273401	-1.168402	-5.802617
O3	2.083416	-1.871939	-6.796824
N4	1.728206	-1.468914	-4.580402
C5	0.798288	-2.587593	-4.444348
C6	-0.652530	-2.079949	-4.590491
O7	-1.010707	-1.041962	-4.020117
C8	1.000537	-3.282538	-3.072631
C9	0.195263	-4.552040	-2.901079
C10	0.699584	-5.782867	-3.347244
C11	-1.076040	-4.528593	-2.310622
C12	-0.048445	-6.955002	-3.222587
C13	-1.828374	-5.697520	-2.186647
C14	-1.319360	-6.914679	-2.644797
N15	-1.536178	-2.790990	-5.332554
C16	-1.309891	-4.051810	-6.054595
C17	-2.730718	-4.526446	-6.387938
C18	-3.504966	-3.212484	-6.575181
C19	-2.914050	-2.298707	-5.493178
C20	3.725691	3.073384	-2.422866
C21	4.993964	2.203131	-2.390439
O22	6.104998	2.733485	-2.286068
C23	2.359178	2.401792	-2.640024
C24	1.985083	1.312800	-1.608928
O25	1.660071	1.697480	-0.452679
O26	2.061187	0.097047	-2.002265
N27	4.847404	0.851090	-2.498859
C28	6.012379	-0.026748	-2.450047
C29	5.680424	-1.473398	-2.880578
C30	5.446901	-2.428539	-1.744763
C31	4.283418	-2.616035	-1.037613
C32	6.426654	-3.299871	-1.148166
C33	5.777479	-4.001244	-0.090367
C34	7.785938	-3.560628	-1.397459
N35	4.475331	-3.561253	-0.048641
C36	6.445490	-4.946534	0.696487
C37	8.455191	-4.491474	-0.611352
C38	7.789199	-5.179180	0.425144
C39	9.976824	2.354142	-0.635394
C40	9.737616	1.081598	0.185587
C41	11.007235	0.375113	0.699664
C42	11.831614	1.262984	1.644030
C43	10.649355	-0.952863	1.383239
C44	2.230953	8.119889	-0.494111
C45	3.647130	7.886488	0.005604
O46	4.588215	8.608270	-0.320884
N47	3.801079	6.796306	0.819682
C48	5.092460	6.407862	1.366074
C49	5.678583	5.101392	0.795258
C50	7.131837	4.950183	1.267202
C51	4.855924	3.864660	1.180051
C52	-2.924751	-4.832480	5.186207
C53	-2.345199	-4.732415	3.919065
C54	-2.753194	-3.774561	6.088025
C55	-1.589770	-3.617170	3.556129
C56	-1.997506	-2.656648	5.742419
C57	-1.387758	-2.573751	4.476914
O58	-0.625609	-1.488619	4.223791
C59	0.439644	-7.074957	6.930195
C60	1.382253	-5.922911	7.310043
C61	1.152802	-4.721053	6.374717
C62	2.842833	-6.398072	7.314948
C63	1.894033	-3.435806	6.756800
C64	-8.602859	-2.143726	-2.897436
C65	-8.087730	-3.569180	-2.648618
C66	-8.933691	-4.263040	-1.561826
C67	-6.591970	-3.546974	-2.298810
C68	-8.641128	-5.755108	-1.370402
C69	-6.599839	-3.655760	4.559621
C70	-6.801150	-2.772246	3.350950
C71	-8.089674	-2.464810	2.891664
C72	-5.704760	-2.215641	2.679252
C73	-8.280387	-1.614860	1.801746
C74	-5.889052	-1.365746	1.586521
C75	-7.178393	-1.059106	1.147025
C76	3.116273	-6.494900	2.249199
C77	2.983987	-5.215698	2.792420
C78	2.289292	-6.867143	1.183499
C79	2.044250	-4.314505	2.285293
C80	1.346487	-5.984176	0.666652
C81	1.210258	-4.693596	1.212718
O82	0.280217	-3.873587	0.689905
C83	-4.267775	7.878950	2.296908
C84	-2.963352	8.223928	1.573038
C85	-1.880691	7.115565	1.613348
O86	-2.319296	5.909845	1.729155
O87	-0.692022	7.465782	1.504617
C88	-4.127992	5.099935	4.928203
C89	-2.662087	5.024971	5.409773
O90	-2.403360	4.806749	6.599141
C91	-5.038083	4.138349	5.701103
C92	-4.799641	2.639841	5.431037
C93	-5.615784	1.783869	6.410642
C94	-5.116947	2.246568	3.981059
N95	-1.713131	5.239768	4.466053
C96	-0.287355	5.297771	4.798832
C97	0.618382	4.959941	3.606597
C98	2.083905	5.126031	4.031816
C99	0.353342	3.548251	3.067513
C100	-4.069347	5.196141	-1.201811
C101	-2.767912	4.524012	-1.476265
C102	-2.320128	3.839877	-2.578987
N103	-1.730286	4.473268	-0.569924
C104	-0.723639	3.767599	-1.148318
N105	-1.042738	3.366603	-2.371989
C106	-4.908100	5.333250	-6.236692
C107	-4.751975	3.904115	-5.762276
C108	-3.534676	3.223599	-5.907045
C109	-5.820613	3.229724	-5.157715
C110	-3.371638	1.920810	-5.434866
C111	-5.676360	1.916814	-4.704694
C112	-4.449976	1.264704	-4.834608
O113	-0.158326	1.712518	-4.681231
O114	0.579460	-1.593608	1.780054
H115	3.737518	0.251735	-4.982044
H116	2.439224	0.958249	-5.948205
H117	2.068869	-3.502265	-2.983544
H118	0.751892	-2.570888	-2.280625
H119	1.692851	-5.820658	-3.788488
H120	-1.467280	-3.590379	-1.929067
H121	0.364306	-7.898840	-3.569452
H122	-2.807061	-5.658089	-1.716429
H123	-1.902656	-7.825752	-2.540777
H124	1.038695	-3.278693	-5.254085
H125	-2.753963	-5.177851	-7.266486
H126	-3.136848	-5.087396	-5.538788
H127	-3.304246	-2.795179	-7.568683
H128	-4.587693	-3.328496	-6.474084
H129	-2.908221	-1.241993	-5.768346
H130	-3.455551	-2.389260	-4.542071
H131	-0.769782	-4.771285	-5.437519
H132	2.296343	1.968282	-3.639165
H133	1.593461	3.179632	-2.593739
H134	3.732949	3.637163	-1.484550
H135	6.512767	-1.851490	-3.485814
H136	4.811282	-1.458803	-3.547843
H137	3.334703	-2.110814	-1.155017
H138	8.308596	-3.038046	-2.194787
H139	9.506288	-4.696888	-0.797319
H140	5.925059	-5.477937	1.487333
H141	8.336108	-5.903912	1.022694
H142	6.454373	-0.029369	-1.444340
H143	2.137614	9.168950	-0.779303
H144	5.681741	5.183309	-0.299182
H145	7.580117	4.032176	0.874787
H146	7.749213	5.793957	0.938318
H147	7.186063	4.903990	2.363301
H148	5.268556	2.970032	0.704024
H149	3.809984	3.938191	0.864891
H150	4.868730	3.705327	2.266313
H151	5.011619	6.320747	2.459691
H152	-2.471157	-5.535230	3.197223
H153	-3.207601	-3.822747	7.074853
H154	-1.147729	-3.566382	2.568459
H155	-1.850406	-1.837607	6.439333
H156	-0.194880	-1.522143	3.334263
H157	1.128823	-5.603525	8.333779
H158	3.148992	-6.711514	6.309031
H159	3.528825	-5.609507	7.640316
H160	2.980422	-7.254658	7.985969
H161	1.425458	-5.010777	5.351092
H162	0.079331	-4.505971	6.346928
H163	1.664722	-3.136541	7.787301
H164	2.981992	-3.540904	6.678111
H165	1.591052	-2.613762	6.100929
H166	0.660282	-7.437382	5.918792
H167	-8.211585	-4.140391	-3.582557
H168	-6.182849	-4.554356	-2.174792
H169	-6.012877	-3.053090	-3.087044
H170	-6.418414	-2.998124	-1.366059
H171	-8.783752	-3.734759	-0.610461
H172	-9.995810	-4.140639	-1.816770
H173	-8.769183	-6.307986	-2.309173
H174	-7.619342	-5.929160	-1.019904
H175	-9.318042	-6.196318	-0.630788
H176	-8.529461	-1.542148	-1.983599
H177	-5.590669	-4.074080	4.586197
H178	-7.319905	-4.481555	4.576838
H179	-8.952394	-2.892783	3.398461
H180	-4.697470	-2.447798	3.015152
H181	-9.288232	-1.382122	1.467056
H182	-5.025464	-0.938225	1.086325
H183	-7.322135	-0.385925	0.306443
H184	2.383926	-7.858047	0.745992
H185	3.616259	-4.907260	3.621112
H186	0.705353	-6.264847	-0.162316
H187	1.929984	-3.322438	2.710606
H188	0.326025	-2.948883	1.125893
H189	-3.172529	8.417682	0.510478
H190	-2.516747	9.144286	1.964861
H191	-4.665821	6.932743	1.924056
H192	-4.879891	4.329814	6.768142
H193	-6.088520	4.377353	5.477447
H194	-3.736645	2.438897	5.619218
H195	-5.436243	0.714705	6.250707
H196	-5.359764	2.018248	7.450004
H197	-6.692266	1.960786	6.283256
H198	-4.933297	1.180199	3.810196
H199	-4.507109	2.807349	3.266187
H200	-6.171647	2.441457	3.745281
H201	-4.462771	6.129263	5.112045
H202	0.399073	5.681349	2.807512
H203	2.762583	4.899373	3.203188
H204	2.338128	4.443843	4.853859
H205	2.292200	6.148264	4.368409
H206	1.022951	3.312163	2.232770
H207	0.504998	2.792817	3.850606
H208	-0.673772	3.462247	2.704215
H209	-0.114584	4.603347	5.629430
H210	-4.782519	4.959017	-1.997051
H211	-4.497095	4.873565	-0.246120
H212	-2.855127	3.639670	-3.492859
H213	0.200606	3.522576	-0.643446
H214	-4.692595	5.378526	-7.314091
H215	-5.958591	5.630924	-6.128522
H216	-6.772970	3.741842	-5.036071
H217	-2.683660	3.728133	-6.357693
H218	-6.516960	1.412965	-4.233647
H219	-2.382381	1.470849	-5.464962
H220	-4.324644	0.257698	-4.448163
H221	10.661738	2.162497	-1.471019
H222	10.405572	3.161177	-0.032000
H223	9.170561	0.369109	-0.426798
H224	9.090241	1.317425	1.042301
H225	11.634958	0.145310	-0.176163
H226	12.727053	0.738299	1.997780
H227	12.158679	2.186605	1.156587
H228	11.242035	1.543578	2.525965
H229	11.547982	-1.483710	1.719920
H230	10.095750	-1.619111	0.713156
H231	10.019428	-0.778453	2.264265
H232	-0.361958	2.290176	-3.911984
H233	5.763178	7.241937	1.145106
H234	2.059515	7.509087	-1.388136
H235	1.454568	7.868116	0.236803
H236	-5.025068	8.661897	2.160243
H237	-9.653275	-2.145796	-3.210902
H238	3.744243	0.052386	-6.764647
H239	6.767922	0.409633	-3.112062
H240	3.901086	3.813278	-3.212215
H241	3.847662	-7.191107	2.649170
H242	0.541522	-7.923474	7.617989
H243	-6.738254	-3.087266	5.488323
H244	-0.033068	6.302149	5.169956
H245	-3.502146	-5.709268	5.464764
H246	-1.754615	4.920600	0.366618
H247	-0.279958	0.816896	-4.328166
H248	-0.605932	-6.749797	6.939397
H249	-1.984035	5.447084	3.495290
H250	1.810079	-0.810319	-3.797241
H251	2.974786	6.281977	1.087407
H252	3.917986	0.436533	-2.408286
H253	9.033006	2.715273	-1.056466
H254	3.769087	-3.875046	0.604242
C255	0.419628	0.176832	1.008744
C256	1.362393	-0.912365	0.807983
H257	2.390809	-0.689733	1.109125
H258	0.619747	0.802999	1.872181
C259	-0.883192	0.330153	0.392480
C260	-1.155554	-0.118048	-0.912268
C261	-1.894556	0.985162	1.120244
C262	-2.414113	0.079352	-1.468015
H263	-0.362899	-0.545377	-1.514179
C264	-3.155965	1.172429	0.564014
H265	-1.684793	1.339572	2.124689
C266	-3.414487	0.721363	-0.732891
H267	-2.585643	-0.236720	-2.489766
H268	-3.925240	1.686902	1.130741
H269	-4.386181	0.900185	-1.185110
H270	1.347349	-1.372173	-0.179879
H271	-3.972286	6.288087	-1.146268
H272	-4.100204	7.762226	3.372586
H273	-4.181929	4.955121	3.844871
H274	-8.020615	-1.637690	-3.675188
H275	-0.723203	-3.867345	-6.964910
C276	-4.017289	6.367040	-5.521298
H277	-2.956168	6.126972	-5.634394
H278	-4.183809	7.368763	-5.932531
H279	-4.229411	6.396255	-4.448458