279

C1	2.615092	0.005955	-6.059873
C2	1.696925	-1.210552	-5.945640
O3	1.480067	-1.943459	-6.912864
N4	1.124744	-1.428770	-4.717573
C5	0.173219	-2.518527	-4.532243
C6	-1.271692	-1.980966	-4.476034
O7	-1.559457	-1.015135	-3.760433
C8	0.494108	-3.320712	-3.245435
C9	-0.332449	-4.578031	-3.080726
C10	0.100856	-5.793420	-3.631395
C11	-1.555854	-4.556232	-2.395961
C12	-0.669275	-6.951827	-3.515354
C13	-2.330562	-5.711523	-2.280647
C14	-1.892277	-6.913101	-2.842257
N15	-2.232174	-2.607101	-5.206386
C16	-2.111077	-3.813530	-6.044267
C17	-3.567193	-4.266864	-6.217746
C18	-4.350756	-2.945144	-6.207128
C19	-3.615075	-2.105989	-5.153707
C20	3.600078	2.899311	-2.633192
C21	4.802921	1.939242	-2.685313
O22	5.950950	2.390002	-2.611312
C23	2.166209	2.341668	-2.738911
C24	1.806504	1.238609	-1.719443
O25	1.521754	1.599655	-0.540275
O26	1.861375	0.032190	-2.131164
N27	4.555727	0.604563	-2.821897
C28	5.650101	-0.358848	-2.782541
C29	5.220971	-1.771366	-3.256317
C30	5.024896	-2.780557	-2.158760
C31	3.846365	-3.107805	-1.533213
C32	6.043377	-3.592870	-1.538921
C33	5.400227	-4.390980	-0.546945
C34	7.430704	-3.733374	-1.721619
N35	4.061423	-4.078033	-0.574644
C36	6.103024	-5.303422	0.247787
C37	8.132560	-4.637838	-0.932098
C38	7.473984	-5.414388	0.044459
C39	9.860357	1.713683	-1.152578
C40	9.546811	0.512088	-0.253829
C41	10.773726	-0.211922	0.333592
C42	11.615566	0.698870	1.239695
C43	10.344099	-1.478686	1.088307
C44	2.572357	8.027069	-0.615410
C45	3.986062	7.692934	-0.170205
O46	4.959670	8.353156	-0.530873
N47	4.099047	6.589184	0.631322
C48	5.386897	6.097658	1.097859
C49	5.847036	4.776311	0.450468
C50	7.323899	4.520388	0.781914
C51	4.985239	3.580966	0.876758
C52	-3.238238	-4.556508	5.258403
C53	-2.804651	-4.585352	3.929161
C54	-3.220714	-3.335423	5.942621
C55	-2.366696	-3.427060	3.285872
C56	-2.786857	-2.170562	5.314535
C57	-2.350965	-2.202395	3.976720
O58	-1.950673	-1.039573	3.422711
C59	0.032921	-7.050726	6.829307
C60	0.924508	-5.884934	7.282237
C61	0.999020	-4.806143	6.183270
C62	2.309888	-6.401250	7.699719
C63	1.739811	-3.524820	6.580254
C64	-9.085392	-1.402450	-2.531226
C65	-8.230689	-2.678465	-2.550071
C66	-8.905837	-3.790520	-1.722195
C67	-6.802334	-2.377014	-2.073095
C68	-8.244711	-5.168696	-1.833368
C69	-6.843271	-3.110717	4.814570
C70	-7.617502	-2.382617	3.741700
C71	-8.854712	-2.859344	3.289582
C72	-7.112643	-1.205624	3.168591
C73	-9.571912	-2.182862	2.300217
C74	-7.822555	-0.527429	2.178263
C75	-9.058667	-1.011247	1.741999
C76	2.517426	-6.633011	2.026675
C77	2.559863	-5.310579	2.478007
C78	1.551688	-6.995198	1.081757
C79	1.651094	-4.359034	2.005661
C80	0.638359	-6.062012	0.602379
C81	0.671242	-4.732719	1.066326
O82	-0.243377	-3.876701	0.579486
C83	-3.785388	8.239718	2.485423
C84	-2.480917	8.461508	1.714442
C85	-1.525887	7.242756	1.673154
O86	-2.077793	6.090153	1.842242
O87	-0.320456	7.458059	1.458356
C88	-3.723206	5.438778	5.096371
C89	-2.246771	5.357328	5.530731
O90	-1.952605	5.189643	6.719442
C91	-4.418184	4.077388	5.294554
C92	-3.902353	2.951278	4.375747
C93	-4.455090	1.586601	4.812219
C94	-4.213638	3.213525	2.893822
N95	-1.328865	5.438133	4.534889
C96	0.110999	5.357312	4.782329
C97	0.891857	4.871125	3.553269
C98	2.395648	4.938304	3.853875
C99	0.475728	3.456279	3.132044
C100	-3.951458	5.575183	-1.028910
C101	-2.758055	4.727661	-1.309888
C102	-2.420310	3.986154	-2.414415
N103	-1.728147	4.535820	-0.413075
C104	-0.830465	3.703241	-1.001242
N105	-1.216165	3.345025	-2.219383
C106	-5.018217	5.809745	-6.016830
C107	-4.881810	4.371665	-5.560272
C108	-3.723951	3.635291	-5.850428
C109	-5.880185	3.760604	-4.791129
C110	-3.539289	2.346422	-5.349055
C111	-5.715502	2.461844	-4.303947
C112	-4.539157	1.760536	-4.567459
O113	-0.472914	1.615664	-4.481469
O114	-0.410391	-1.404051	1.259924
H115	3.300436	0.098312	-5.213445
H116	1.990529	0.906375	-6.074182
H117	1.555203	-3.581061	-3.293639
H118	0.351303	-2.660403	-2.385893
H119	1.055419	-5.829310	-4.151278
H120	-1.890019	-3.631648	-1.936553
H121	-0.311291	-7.883992	-3.944778
H122	-3.271080	-5.674652	-1.737828
H123	-2.493251	-7.813508	-2.745990
H124	0.301612	-3.160853	-5.405290
H125	-3.712487	-4.855100	-7.128694
H126	-3.859049	-4.886613	-5.362553
H127	-4.283100	-2.460095	-7.187850
H128	-5.410883	-3.071443	-5.969917
H129	-3.637551	-1.033913	-5.360817
H130	-4.026543	-2.253309	-4.146852
H131	-1.499575	-4.574746	-5.558198
H132	1.970653	1.946963	-3.736867
H133	1.474813	3.174964	-2.593217
H134	3.715932	3.450888	-1.694978
H135	5.985156	-2.150651	-3.945827
H136	4.303228	-1.688140	-3.847787
H137	2.861655	-2.695265	-1.691232
H138	7.949072	-3.139921	-2.470461
H139	9.204714	-4.751978	-1.068771
H140	5.588452	-5.900902	0.994604
H141	8.048332	-6.111724	0.648570
H142	6.076045	-0.418747	-1.771080
H143	2.516752	9.101215	-0.800549
H144	5.761293	4.891694	-0.637573
H145	7.676452	3.612842	0.282391
H146	7.957800	5.352719	0.454910
H147	7.471387	4.390602	1.862398
H148	5.312656	2.669640	0.367863
H149	3.926090	3.718360	0.634981
H150	5.060499	3.407438	1.958019
H151	5.355503	5.978696	2.190683
H152	-2.800237	-5.522647	3.378418
H153	-3.549088	-3.288585	6.978445
H154	-2.027120	-3.471037	2.256565
H155	-2.766756	-1.221036	5.839758
H156	-1.516157	-1.166197	2.537850
H157	0.456294	-5.426676	8.167695
H158	2.832703	-6.843558	6.842271
H159	2.943702	-5.603528	8.099155
H160	2.227325	-7.175302	8.472193
H161	1.469862	-5.240321	5.290458
H162	-0.022765	-4.543366	5.883557
H163	1.281799	-3.058002	7.460644
H164	2.794069	-3.710336	6.813635
H165	1.709632	-2.793265	5.766962
H166	0.461466	-7.547745	5.950372
H167	-8.173302	-3.028973	-3.593057
H168	-6.152697	-3.255660	-2.133228
H169	-6.344074	-1.589239	-2.680601
H170	-6.800491	-2.032890	-1.032196
H171	-8.930333	-3.480657	-0.668293
H172	-9.954495	-3.874224	-2.040992
H173	-8.195279	-5.502323	-2.877116
H174	-7.224363	-5.164078	-1.438555
H175	-8.807885	-5.921523	-1.271091
H176	-9.213772	-1.039207	-1.504775
H177	-5.983568	-3.655409	4.409136
H178	-7.477598	-3.833187	5.338149
H179	-9.264310	-3.768922	3.723714
H180	-6.160109	-0.808252	3.508103
H181	-10.534849	-2.566989	1.972972
H182	-7.412124	0.384721	1.754701
H183	-9.620748	-0.472265	0.984393
H184	1.510789	-8.016938	0.712243
H185	3.309104	-5.005406	3.203695
H186	-0.113527	-6.332641	-0.131447
H187	1.686596	-3.333767	2.361136
H188	-0.178442	-2.946910	0.974740
H189	-2.706998	8.716798	0.668562
H190	-1.918471	9.312520	2.114221
H191	-4.308098	7.361575	2.100600
H192	-4.274320	3.783170	6.341511
H193	-5.501265	4.197072	5.141840
H194	-2.810377	2.908717	4.484991
H195	-3.999092	0.780765	4.227107
H196	-4.245340	1.392251	5.870806
H197	-5.544302	1.537079	4.676412
H198	-3.856819	2.386447	2.270374
H199	-3.740312	4.127663	2.524099
H200	-5.298014	3.302213	2.737511
H201	-4.201143	6.185911	5.739880
H202	0.669696	5.560333	2.726939
H203	2.983456	4.589123	2.998731
H204	2.658881	4.300192	4.707954
H205	2.713239	5.960709	4.089496
H206	1.039743	3.128122	2.252026
H207	0.663909	2.736261	3.939358
H208	-0.588913	3.416830	2.886170
H209	0.264225	4.686980	5.636553
H210	-4.661495	5.494040	-1.857392
H211	-4.462697	5.267801	-0.109510
H212	-2.980418	3.874621	-3.328253
H213	0.074294	3.358857	-0.519151
H214	-4.876235	5.864631	-7.105538
H215	-6.041594	6.155166	-5.824721
H216	-6.786119	4.315551	-4.555655
H217	-2.929966	4.093921	-6.435427
H218	-6.493455	2.013453	-3.691009
H219	-2.581438	1.848840	-5.480208
H220	-4.372783	0.780632	-4.130593
H221	10.560170	1.437165	-1.951466
H222	10.305109	2.543595	-0.593720
H223	8.961265	-0.215640	-0.830070
H224	8.893525	0.833705	0.569582
H225	11.408834	-0.522663	-0.511571
H226	12.482752	0.162616	1.643022
H227	11.987714	1.577712	0.704287
H228	11.021032	1.055121	2.090318
H229	11.211613	-2.036861	1.460461
H230	9.757725	-2.148349	0.450184
H231	9.720265	-1.223036	1.953758
H232	-0.639330	2.224202	-3.725600
H233	6.100960	6.891886	0.866170
H234	2.369040	7.513920	-1.562589
H235	1.792863	7.738667	0.097908
H236	-4.451219	9.109142	2.405809
H237	-10.083833	-1.583639	-2.946653
H238	3.171773	-0.072338	-6.993794
H239	6.446776	0.036773	-3.420509
H240	3.767583	3.631611	-3.431013
H241	3.225758	-7.365770	2.402024
H242	-0.077053	-7.804093	7.618589
H243	-6.440926	-2.412095	5.554797
H244	0.493814	6.344099	5.085265
H245	-3.578423	-5.463390	5.750435
H246	-1.666500	5.009072	0.509183
H247	-0.741768	0.751665	-4.128402
H248	-0.965886	-6.696986	6.552243
H249	-1.635584	5.630012	3.572687
H250	1.273834	-0.772172	-3.945728
H251	3.253546	6.121741	0.923850
H252	3.600395	0.258646	-2.689886
H253	8.945054	2.082064	-1.626993
H254	3.365139	-4.410764	0.078783
C255	-0.024809	-0.823665	0.017071
C256	0.706983	0.057909	0.915817
H257	0.125733	0.864110	1.346160
H258	0.579972	-1.477272	-0.609555
C259	4.363198	-0.901253	2.915342
C260	3.262595	-0.428528	3.635086
C261	4.277724	-1.046119	1.528711
C262	2.082314	-0.103322	2.968971
H263	3.323990	-0.308365	4.713181
C264	3.095958	-0.727295	0.861186
H265	5.131335	-1.405249	0.961603
C266	1.985454	-0.262893	1.577124
H267	1.216871	0.244906	3.524651
H268	3.025815	-0.798461	-0.217286
H269	-0.825211	-0.359025	-0.565100
H270	5.286389	-1.149017	3.432628
H271	-3.689620	6.633040	-0.903290
H272	-3.590124	8.067945	3.548377
H273	-3.807565	5.776489	4.061059
H274	-8.619125	-0.600280	-3.113188
H275	-1.648819	-3.563681	-7.009054
C276	-4.020970	6.770663	-5.341412
H277	-2.987463	6.471696	-5.538504
H278	-4.154614	7.794196	-5.709739
H279	-4.154772	6.776273	-4.255700