279

C1	2.607903	-0.182402	-6.113571
C2	1.603751	-1.339037	-6.010960
O3	1.229640	-1.946549	-7.018105
N4	1.169464	-1.639624	-4.754084
C5	0.214437	-2.717291	-4.527666
C6	-1.230353	-2.178855	-4.536273
O7	-1.533731	-1.141266	-3.927683
C8	0.520849	-3.464354	-3.201659
C9	-0.208098	-4.786679	-3.083941
C10	0.248368	-5.911446	-3.788385
C11	-1.357067	-4.915942	-2.293113
C12	-0.436703	-7.125833	-3.729394
C13	-2.050521	-6.127104	-2.240043
C14	-1.598177	-7.233771	-2.961174
N15	-2.181119	-2.879980	-5.208029
C16	-2.027008	-4.110946	-6.015923
C17	-3.471872	-4.593285	-6.192528
C18	-4.279483	-3.287078	-6.235285
C19	-3.570692	-2.396258	-5.205532
C20	3.498040	2.834939	-2.768851
C21	4.727408	1.905545	-2.791322
O22	5.860341	2.402967	-2.795643
C23	2.081452	2.292825	-3.091693
C24	1.438688	1.086540	-2.337199
O25	1.172540	1.428209	-0.997927
O26	1.868085	-0.103023	-2.549931
N27	4.513012	0.565949	-2.788777
C28	5.625300	-0.376591	-2.805570
C29	5.183371	-1.821173	-3.138791
C30	5.009896	-2.722669	-1.949645
C31	3.844205	-3.012116	-1.279260
C32	6.051409	-3.449076	-1.267962
C33	5.432533	-4.159782	-0.196511
C34	7.439979	-3.579101	-1.449977
N35	4.090160	-3.875652	-0.235681
C36	6.158582	-4.983757	0.670912
C37	8.165536	-4.392354	-0.585598
C38	7.529416	-5.087989	0.464928
C39	9.772896	1.843333	-1.209390
C40	9.471096	0.735609	-0.193459
C41	10.708332	0.069894	0.439482
C42	11.556041	1.061329	1.251224
C43	10.295320	-1.125389	1.310489
C44	2.334347	7.994994	-0.913801
C45	3.751871	7.701559	-0.452158
O46	4.714127	8.365448	-0.834820
N47	3.882444	6.630384	0.389018
C48	5.180239	6.185231	0.876510
C49	5.730400	4.919768	0.193371
C50	7.223894	4.760180	0.509590
C51	4.954860	3.664703	0.602817
C52	-3.223479	-4.541435	5.295842
C53	-2.620628	-4.698583	4.040123
C54	-3.230987	-3.265256	5.871903
C55	-2.043472	-3.621320	3.360948
C56	-2.664376	-2.178329	5.208402
C57	-2.064456	-2.340899	3.944097
O58	-1.554067	-1.233479	3.363424
C59	0.093283	-6.909006	6.964076
C60	0.974207	-5.745580	7.442981
C61	1.108302	-4.682933	6.334522
C62	2.334895	-6.268309	7.928712
C63	1.848142	-3.405294	6.744694
C64	-9.083038	-1.762095	-2.626059
C65	-8.395172	-3.084914	-2.256680
C66	-9.147851	-3.777856	-1.103233
C67	-6.912584	-2.849232	-1.930986
C68	-8.643638	-5.182734	-0.756177
C69	-6.858028	-3.195672	4.783408
C70	-7.182185	-2.235329	3.662851
C71	-8.506627	-1.994341	3.275340
C72	-6.158869	-1.540966	3.000788
C73	-8.806437	-1.079302	2.263758
C74	-6.452833	-0.625078	1.990201
C75	-7.779026	-0.388542	1.618739
C76	2.604222	-6.576479	2.168544
C77	2.561755	-5.252506	2.620224
C78	1.760486	-6.938151	1.108654
C79	1.709212	-4.311104	2.037981
C80	0.902621	-6.018097	0.519588
C81	0.833690	-4.659690	0.962047
O82	0.014221	-3.809861	0.408182
C83	-4.050365	8.149319	2.134636
C84	-2.624129	8.473522	1.685847
C85	-1.733653	7.248248	1.385806
O86	-2.294884	6.094508	1.551615
O87	-0.568493	7.443421	1.009221
C88	-3.942381	5.430156	4.829197
C89	-2.468844	5.388296	5.279264
O90	-2.180145	5.288371	6.475664
C91	-4.733174	4.251037	5.420666
C92	-4.258096	2.851854	4.980196
C93	-5.028571	1.764285	5.743269
C94	-4.370263	2.629196	3.464673
N95	-1.545704	5.448171	4.286390
C96	-0.105023	5.430463	4.544602
C97	0.697257	4.876604	3.357548
C98	2.197688	4.997831	3.659563
C99	0.316717	3.426750	3.034208
C100	-4.126551	5.377465	-1.298857
C101	-2.950643	4.467987	-1.388633
C102	-2.624250	3.504797	-2.308074
N103	-1.917888	4.491201	-0.475004
C104	-1.014646	3.573124	-0.852175
N105	-1.413643	2.949914	-1.959368
C106	-5.160042	5.437019	-6.298926
C107	-4.989259	4.025733	-5.770728
C108	-3.859342	3.265527	-6.109241
C109	-5.926847	3.462789	-4.895065
C110	-3.658026	1.994914	-5.569210
C111	-5.735573	2.187709	-4.357511
C112	-4.595346	1.453636	-4.685126
O113	-0.073111	1.199315	-3.095053
O114	-0.002630	-1.405842	1.109150
H115	3.057508	0.084983	-5.156873
H116	2.093558	0.694483	-6.520855
H117	1.601034	-3.640431	-3.186003
H118	0.282905	-2.825919	-2.346716
H119	1.156014	-5.833136	-4.383132
H120	-1.671409	-4.081278	-1.677023
H121	-0.060324	-7.986738	-4.276175
H122	-2.933915	-6.210490	-1.612820
H123	-2.133846	-8.178176	-2.908761
H124	0.345480	-3.404271	-5.366407
H125	-3.594806	-5.211174	-7.086924
H126	-3.763881	-5.192576	-5.323201
H127	-4.211011	-2.835795	-7.232105
H128	-5.339548	-3.424622	-6.003643
H129	-3.602905	-1.334517	-5.460914
H130	-3.999565	-2.505131	-4.200954
H131	-1.408696	-4.846197	-5.502872
H132	2.042949	1.997339	-4.142931
H133	1.393809	3.137271	-2.989460
H134	3.499949	3.302043	-1.778466
H135	5.940491	-2.259965	-3.801193
H136	4.258128	-1.788873	-3.724368
H137	2.845040	-2.649386	-1.467225
H138	7.941697	-3.049922	-2.256739
H139	9.239010	-4.499119	-0.721488
H140	5.655967	-5.522761	1.468275
H141	8.121996	-5.717919	1.123468
H142	6.152370	-0.365563	-1.842101
H143	2.259705	9.062333	-1.129599
H144	5.626443	5.055056	-0.890708
H145	7.632939	3.881315	0.001908
H146	7.797115	5.635615	0.183336
H147	7.389274	4.632877	1.587725
H148	5.305609	2.793892	0.043221
H149	3.880474	3.762360	0.413878
H150	5.079952	3.452424	1.671503
H151	5.117248	6.020719	1.961128
H152	-2.589924	-5.679974	3.573512
H153	-3.682332	-3.111276	6.849491
H154	-1.575683	-3.764384	2.388861
H155	-2.662062	-1.187716	5.652929
H156	-1.045088	-1.394630	2.526668
H157	0.470878	-5.272299	8.301266
H158	2.891158	-6.725652	7.100840
H159	2.957452	-5.470529	8.345630
H160	2.211192	-7.031580	8.706716
H161	1.608741	-5.134009	5.467264
H162	0.103667	-4.413175	5.987701
H163	1.367207	-2.925813	7.606440
H164	2.892600	-3.599043	7.012712
H165	1.851541	-2.681860	5.923812
H166	0.552371	-7.414582	6.105955
H167	-8.449931	-3.748313	-3.134760
H168	-6.374081	-3.785828	-1.759203
H169	-6.409063	-2.327767	-2.752914
H170	-6.803021	-2.233987	-1.030391
H171	-9.091229	-3.140112	-0.210494
H172	-10.212536	-3.838279	-1.370420
H173	-8.666626	-5.841758	-1.632895
H174	-7.616352	-5.164983	-0.380843
H175	-9.265381	-5.641634	0.020060
H176	-9.057244	-1.063337	-1.780974
H177	-5.949155	-3.766199	4.574874
H178	-7.680067	-3.897946	4.956966
H179	-9.312762	-2.528365	3.774273
H180	-5.124389	-1.719398	3.281596
H181	-9.842134	-0.904175	1.983090
H182	-5.644250	-0.094464	1.496358
H183	-8.007511	0.330643	0.836963
H184	1.776951	-7.961009	0.734029
H185	3.208698	-4.938826	3.438100
H186	0.254705	-6.313001	-0.299966
H187	1.685214	-3.290597	2.409264
H188	0.049370	-2.407097	0.816443
H189	-2.630649	9.089248	0.776663
H190	-2.104562	9.078321	2.439841
H191	-4.552376	7.505839	1.407656
H192	-4.655550	4.318466	6.512063
H193	-5.796624	4.367248	5.164252
H194	-3.198831	2.763649	5.256985
H195	-4.676486	0.763166	5.471641
H196	-4.913868	1.881509	6.827117
H197	-6.101240	1.807819	5.513446
H198	-3.996714	1.636217	3.192371
H199	-3.792667	3.363538	2.895664
H200	-5.416278	2.694228	3.136579
H201	-4.365886	6.367339	5.211478
H202	0.470592	5.505099	2.484614
H203	2.797507	4.598084	2.835052
H204	2.467396	4.426917	4.556976
H205	2.493102	6.040958	3.822593
H206	0.889322	3.049928	2.180168
H207	0.530331	2.763076	3.880258
H208	-0.747582	3.336267	2.799966
H209	0.060372	4.827862	5.444703
H210	-4.890305	5.071107	-2.018835
H211	-4.562674	5.363381	-0.295132
H212	-3.173465	3.176051	-3.174934
H213	-0.091811	3.362743	-0.336303
H214	-5.001367	5.443935	-7.385575
H215	-6.192940	5.765543	-6.133789
H216	-6.811961	4.034223	-4.623848
H217	-3.118109	3.682360	-6.787401
H218	-6.467736	1.776813	-3.667873
H219	-2.759414	1.433597	-5.807914
H220	-4.412867	0.483320	-4.234873
H221	10.448719	1.481734	-1.994744
H222	10.242112	2.716474	-0.743502
H223	8.873992	-0.042589	-0.685256
H224	8.834489	1.137676	0.607498
H225	11.334532	-0.311568	-0.382841
H226	12.431164	0.566733	1.689307
H227	11.917520	1.892578	0.637665
H228	10.969571	1.486934	2.075218
H229	11.171250	-1.635998	1.728543
H230	9.714819	-1.859001	0.741870
H231	9.672846	-0.796499	2.151621
H232	-0.763117	1.994181	-2.564042
H233	5.859659	7.023395	0.701455
H234	2.147843	7.453168	-1.848541
H235	1.555706	7.712890	-0.197832
H236	-4.644278	9.065349	2.252800
H237	-10.133771	-1.917587	-2.897571
H238	3.384937	-0.470701	-6.825208
H239	6.345823	-0.013685	-3.547708
H240	3.723639	3.637528	-3.477677
H241	3.270237	-7.302147	2.627223
H242	-0.052281	-7.655797	7.754417
H243	-6.681122	-2.656513	5.722329
H244	0.246085	6.447809	4.776337
H245	-3.664009	-5.389842	5.811409
H246	-1.903863	5.114322	0.394215
H247	-0.462129	0.306903	-3.214776
H248	-0.891645	-6.551785	6.645554
H249	-1.855294	5.607720	3.322872
H250	1.432060	-1.034218	-3.959343
H251	3.046591	6.155943	0.696520
H252	3.554192	0.201750	-2.688846
H253	8.850317	2.176716	-1.696024
H254	3.393739	-4.186086	0.436308
C255	0.353615	0.505322	-0.242765
C256	1.045921	-0.664685	0.498463
H257	-0.403697	0.066390	-0.896436
H258	-0.159525	1.119510	0.503175
C259	4.126211	0.495808	3.324911
C260	2.827171	0.246855	3.769742
C261	4.416641	0.386607	1.963697
C262	1.828411	-0.118023	2.864126
H263	2.588474	0.325310	4.827638
C264	3.415394	0.036964	1.056837
H265	5.426907	0.563655	1.605789
C266	2.111110	-0.227968	1.495839
H267	0.829030	-0.336731	3.222182
H268	3.650002	-0.052670	0.000802
H269	4.907283	0.763597	4.032125
H270	1.530367	-1.284669	-0.262282
H271	-3.852065	6.417710	-1.512541
H272	-4.053177	7.622240	3.089708
H273	-4.014444	5.459428	3.738690
H274	-8.585487	-1.275619	-3.472369
H275	-1.557895	-3.868393	-6.978922
C276	-4.190935	6.441176	-5.645818
H277	-3.149705	6.150920	-5.814667
H278	-4.333360	7.447350	-6.055396
H279	-4.346092	6.487514	-4.563747