290

C1	1.833294	8.144957	-0.500237
C2	2.743445	7.778972	0.682991
O3	2.683132	8.388159	1.749527
N4	3.666024	6.806282	0.463755
C5	4.701213	6.535736	1.440129
C6	5.313594	5.135612	1.261648
C7	6.576986	4.999909	2.121900
C8	4.304759	4.025288	1.586517
C9	3.180996	0.183203	-5.864601
C10	2.316767	-1.086979	-5.884502
O11	2.125611	-1.730620	-6.916552
N12	1.775651	-1.434997	-4.679292
C13	0.920252	-2.596670	-4.511550
C14	-0.570918	-2.209916	-4.579755
O15	-1.010203	-1.262599	-3.905105
C16	1.224371	-3.281919	-3.154143
C17	0.445363	-4.558350	-2.922243
C18	0.956206	-5.796255	-3.340311
C19	-0.809765	-4.535284	-2.295448
C20	0.235151	-6.975857	-3.143506
C21	-1.534540	-5.711997	-2.097968
C22	-1.014588	-6.937054	-2.521926
N23	-1.401562	-2.944126	-5.358524
C24	-1.083280	-4.133969	-6.186006
C25	-2.466022	-4.687503	-6.555044
C26	-3.353158	-3.434110	-6.603619
C27	-2.828733	-2.588041	-5.437483
C28	3.572445	3.163871	-2.393837
C29	4.894495	2.371455	-2.345676
O30	5.951949	2.970014	-2.129409
C31	2.280312	2.567990	-2.987219
C32	1.700116	1.304793	-2.334304
O33	1.229674	1.587108	-1.050566
O34	2.231698	0.167087	-2.513901
N35	4.821391	1.028204	-2.520364
C36	5.973720	0.151700	-2.359611
C37	5.654216	-1.297763	-2.821600
C38	5.829025	-2.333399	-1.747354
C39	4.835646	-2.923750	-1.005269
C40	7.072633	-2.874620	-1.256217
N41	5.381170	-3.807251	-0.091776
C42	6.751727	-3.793698	-0.215774
C43	8.423801	-2.675351	-1.589659
C44	7.735878	-4.500948	0.483567
C45	9.404287	-3.375663	-0.896174
C46	9.062553	-4.279170	0.131744
C47	9.790994	2.673957	-0.424396
C48	9.733134	1.438822	0.481298
C49	11.078439	1.009496	1.098990
C50	11.674116	2.086452	2.017918
C51	10.925711	-0.320448	1.851850
C52	1.247582	6.966070	-1.282672
O53	0.556382	6.071295	-0.451702
C54	-3.789674	-6.297500	5.138563
C55	-2.995909	-5.281030	4.349273
C56	-2.379465	-5.626874	3.140359
C57	-2.831802	-3.965077	4.804867
C58	-1.625786	-4.707885	2.412987
C59	-2.085080	-3.029019	4.090048
C60	-1.471713	-3.399189	2.888129
O61	-0.749985	-2.456712	2.219525
C62	0.396494	-7.128720	6.838849
C63	1.237793	-5.934954	7.313796
C64	1.132776	-4.766286	6.314341
C65	2.690239	-6.366628	7.565462
C66	1.778727	-3.457226	6.780291
C67	-8.532297	-2.510053	-3.241370
C68	-7.838202	-3.850296	-2.957839
C69	-8.674550	-4.694511	-1.975370
C70	-6.404919	-3.619532	-2.454964
C71	-8.177056	-6.129899	-1.772991
C72	-6.693747	-3.968531	4.268526
C73	-7.156505	-3.058395	3.154490
C74	-8.510488	-2.978767	2.803783
C75	-6.235666	-2.287616	2.430457
C76	-8.937335	-2.156041	1.759876
C77	-6.658041	-1.462370	1.387352
C78	-8.011115	-1.392274	1.047817
C79	3.920535	-7.633066	2.801842
C80	3.266823	-6.427247	2.175871
C81	3.428458	-5.146020	2.718178
C82	2.447586	-6.558729	1.046141
C83	2.793002	-4.031343	2.164402
C84	1.807508	-5.462386	0.477086
C85	1.977125	-4.191406	1.037810
O86	1.327025	-3.138151	0.451505
C87	-4.730930	7.652253	2.097666
C88	-3.249268	8.043140	2.079227
C89	-2.375786	7.060286	1.284832
O90	-2.591719	5.815658	1.498351
O91	-1.514350	7.527560	0.503560
C92	-4.564236	4.872479	4.726589
C93	-3.096962	4.811781	5.210869
O94	-2.835472	4.593981	6.397496
C95	-5.501556	4.046477	5.613494
C96	-5.361629	2.517900	5.477339
C97	-6.116408	1.808368	6.610703
C98	-5.843491	2.007797	4.111026
N99	-2.130962	5.049652	4.283710
C100	-0.731594	5.214472	4.710779
C101	0.196701	5.752205	3.620228
C102	1.492084	6.272841	4.260131
C103	0.488566	4.690222	2.554206
C104	-4.329275	4.989364	-1.398840
C105	-3.061670	4.246140	-1.595747
N106	-2.028496	4.350080	-0.694116
C107	-2.619474	3.403510	-2.581907
C108	-1.013521	3.595509	-1.140168
N109	-1.333756	2.998620	-2.283914
C110	-4.194406	6.174454	-5.712661
C111	-5.024389	5.110185	-6.455971
C112	-4.863724	3.704110	-5.916348
C113	-3.732633	2.937142	-6.231657
C114	-5.832480	3.139274	-5.075955
C115	-3.565636	1.653136	-5.711298
C116	-5.675178	1.852108	-4.558084
C117	-4.538120	1.106774	-4.870528
O118	0.193867	1.295919	-3.325807
H119	3.655622	0.363583	-4.900356
H120	2.544927	1.042442	-6.102816
H121	2.298734	-3.490320	-3.133955
H122	1.019355	-2.568889	-2.350940
H123	1.934164	-5.834567	-3.814265
H124	-1.215145	-3.586213	-1.956852
H125	0.653051	-7.924387	-3.469519
H126	-2.502398	-5.671496	-1.605869
H127	-1.575483	-7.853692	-2.363097
H128	1.161791	-3.276443	-5.331658
H129	-2.447296	-5.245213	-7.495277
H130	-2.813163	-5.364971	-5.766943
H131	-3.202833	-2.902102	-7.549785
H132	-4.419608	-3.655287	-6.509597
H133	-2.939360	-1.512826	-5.591571
H134	-3.328130	-2.838545	-4.492204
H135	-0.488254	-4.854352	-5.621947
H136	2.422013	2.320243	-4.040454
H137	1.514860	3.346628	-2.943822
H138	3.380552	3.475497	-1.359394
H139	6.288388	-1.550205	-3.679876
H140	4.625208	-1.342097	-3.192072
H141	3.765500	-2.777345	-1.051259
H142	8.698894	-1.981570	-2.379633
H143	10.450620	-3.229322	-1.148919
H144	7.472301	-5.197184	1.274963
H145	9.850013	-4.811611	0.657660
H146	6.298750	0.143662	-1.310943
H147	9.334141	0.594135	-0.095196
H148	9.011406	1.614106	1.292462
H149	11.785144	0.847729	0.269811
H150	12.624929	1.753923	2.450196
H151	11.862966	3.023027	1.484495
H152	10.992624	2.308503	2.848838
H153	11.885301	-0.664128	2.255505
H154	10.530123	-1.107292	1.200681
H155	10.232722	-0.211547	2.695441
H156	10.056367	3.579574	0.130726
H157	-0.237110	6.548578	-0.085684
H158	-4.388828	-6.937508	4.481889
H159	-4.470404	-5.812166	5.844049
H160	-2.489031	-6.637954	2.754517
H161	-3.296413	-3.662195	5.740485
H162	-1.154744	-5.003740	1.479389
H163	-1.969345	-2.010600	4.446264
H164	-0.322905	-2.847578	1.434384
H165	0.819655	-5.590134	8.272535
H166	2.737122	-7.198486	8.277446
H167	3.162351	-6.702014	6.633195
H168	3.297397	-5.551603	7.970998
H169	1.576325	-5.073587	5.356799
H170	0.071876	-4.580635	6.104906
H171	1.358178	-3.125239	7.737039
H172	2.861783	-3.552547	6.911336
H173	1.607407	-2.658904	6.051383
H174	-7.779761	-4.405737	-3.907216
H175	-5.857308	-4.558650	-2.328024
H176	-5.837306	-3.000775	-3.159325
H177	-6.410425	-3.103587	-1.487358
H178	-8.707991	-4.178655	-1.005817
H179	-9.710182	-4.727467	-2.340437
H180	-8.121807	-6.668816	-2.726548
H181	-7.182055	-6.157210	-1.318138
H182	-8.850720	-6.689438	-1.115423
H183	-8.621985	-1.917468	-2.322832
H184	-5.831534	-3.547868	4.792107
H185	-6.384384	-4.945522	3.877798
H186	-9.239625	-3.564388	3.359148
H187	-5.180387	-2.332362	2.687742
H188	-9.993737	-2.103816	1.510639
H189	-5.930008	-0.865940	0.845486
H190	-8.340255	-0.739175	0.244700
H191	3.236887	-8.149961	3.487680
H192	4.807705	-7.355579	3.379351
H193	4.058718	-5.010110	3.593762
H194	2.310928	-7.539564	0.597117
H195	2.924742	-3.044319	2.596934
H196	1.186684	-5.571850	-0.404684
H197	1.600772	-2.281924	0.882134
H198	-3.101931	9.046888	1.670799
H199	-2.863932	8.054834	3.108194
H200	-5.164581	7.710983	1.092407
H201	-5.292451	4.326181	6.651114
H202	-6.542914	4.329001	5.401838
H203	-4.295538	2.276323	5.585587
H204	-5.718098	0.922554	4.023767
H205	-5.298956	2.473089	3.283058
H206	-6.909676	2.226444	3.968625
H207	-6.010837	0.719567	6.541631
H208	-5.742547	2.122639	7.590892
H209	-7.189223	2.038375	6.571817
H210	-4.864246	5.927290	4.769796
H211	-0.293538	6.601964	3.128883
H212	1.048254	5.111347	1.716360
H213	1.069120	3.865919	2.992314
H214	-0.440701	4.281463	2.149247
H215	2.124007	6.758836	3.512989
H216	2.057850	5.454386	4.725474
H217	1.278897	7.013088	5.039888
H218	-0.349731	4.252430	5.082277
H219	-5.072476	4.678463	-2.138573
H220	-4.742030	4.817835	-0.399104
H221	-3.127080	3.081224	-3.476096
H222	-0.537248	1.995790	-2.877872
H223	-0.068037	3.509612	-0.637752
H224	-4.742946	5.121661	-7.517086
H225	-6.083953	5.390551	-6.417429
H226	-2.967876	3.355964	-6.881526
H227	-6.719668	3.716069	-4.824436
H228	-2.665806	1.088700	-5.938542
H229	-6.436383	1.436910	-3.903382
H230	-4.397939	0.116928	-4.447204
H231	-3.126026	5.941447	-5.753233
H232	-0.151152	0.383002	-3.411066
H233	4.850337	-4.320733	0.595960
H234	3.896020	0.589757	-2.538436
H235	1.916164	-0.815782	-3.870666
H236	-2.080545	4.915665	0.187936
H237	-2.381829	5.284188	3.316917
H238	-4.182504	6.072082	-1.497768
H239	-4.476440	6.227536	-4.656803
H240	-4.345057	7.163488	-6.157883
H241	0.425238	-7.952603	7.561096
H242	-0.650724	-6.843020	6.692057
H243	0.769412	-7.512601	5.881202
H244	-3.135635	-6.959866	5.720628
H245	4.228075	-8.361870	2.044829
H246	8.820242	2.849463	-0.900040
H247	10.533468	2.544022	-1.221564
H248	-5.312625	8.316224	2.747606
H249	-0.727403	5.886422	5.578256
H250	-7.490237	-4.143689	4.998441
H251	-7.968702	-1.913143	-3.966782
H252	-9.541749	-2.658640	-3.641046
H253	3.935678	0.092623	-6.647714
H254	-0.513280	-3.828219	-7.072115
H255	6.806419	0.576770	-2.929342
C256	0.885000	0.438134	-0.241306
C257	1.972965	0.304676	0.827828
O258	1.737597	-0.825420	1.688017
H259	0.935091	-0.446629	-0.877726
H260	2.059712	1.221539	1.421200
H261	2.931995	0.122030	0.339828
C262	-0.518772	0.560743	0.320496
C263	-0.796914	1.312177	1.470366
C264	-1.573028	-0.101231	-0.322940
C265	-2.097870	1.402712	1.967576
H266	-0.004895	1.858208	1.972875
C267	-2.873300	-0.010392	0.170668
H268	-1.376888	-0.668520	-1.229463
C269	-3.138662	0.738232	1.318551
H270	-2.295822	2.009719	2.846090
H271	-3.679921	-0.522812	-0.346662
H272	-4.151515	0.811879	1.703208
H273	-4.850730	6.626592	2.447395
H274	-4.624777	4.585412	3.671156
H275	3.809414	4.081367	-2.941614
H276	5.614601	5.019258	0.208958
H277	6.340427	5.117084	3.186812
H278	7.035814	4.014977	1.988548
H279	7.325139	5.756258	1.859959
H280	4.036370	4.043666	2.649700
H281	3.379003	4.142862	1.015868
H282	4.726901	3.040696	1.359157
H283	5.495855	7.295182	1.369311
H284	4.261371	6.639782	2.435547
H285	3.723064	6.364568	-0.441322
H286	1.018390	8.736756	-0.075601
H287	2.404222	8.800175	-1.174881
H288	0.605221	7.366614	-2.084973
H289	2.041562	6.396877	-1.789476
H290	0.862492	-0.731877	2.103495