290

C1	4.183989	7.355632	-0.550146
C2	4.954168	6.761726	0.639999
O3	5.015447	7.324034	1.729233
N4	5.603650	5.585547	0.409217
C5	6.493395	5.034578	1.414266
C6	6.872918	3.576987	1.105981
C7	8.057492	3.140959	1.978130
C8	5.684295	2.622120	1.281382
C9	3.321727	-0.703944	-5.868232
C10	2.107198	-1.646323	-5.880731
O11	1.643768	-2.091265	-6.930260
N12	1.582102	-1.948845	-4.655487
C13	0.380444	-2.749937	-4.514665
C14	-0.884796	-1.896923	-4.714948
O15	-0.973301	-0.774297	-4.180121
C16	0.351946	-3.464670	-3.139566
C17	-0.667107	-4.581264	-3.071159
C18	-0.336652	-5.868925	-3.518804
C19	-1.965013	-4.354814	-2.592931
C20	-1.279507	-6.898507	-3.503820
C21	-2.911784	-5.380159	-2.579655
C22	-2.573676	-6.655248	-3.038280
N23	-1.904217	-2.401659	-5.446655
C24	-1.960565	-3.690118	-6.193047
C25	-3.425029	-3.771031	-6.641810
C26	-3.832021	-2.299999	-6.817971
C27	-3.120288	-1.595711	-5.656942
C28	4.500186	2.077037	-2.409731
C29	5.556906	0.952988	-2.383390
O30	6.752499	1.243241	-2.282591
C31	3.188315	1.943319	-3.210627
C32	2.146975	0.859086	-2.915413
O33	1.571621	1.525150	-1.020097
O34	2.419243	-0.330792	-2.620666
N35	5.099183	-0.325576	-2.424082
C36	5.984449	-1.477330	-2.347286
C37	5.409810	-2.750326	-3.004816
C38	4.651947	-3.678387	-2.092149
C39	3.517381	-3.414851	-1.360291
C40	5.001596	-5.049521	-1.808296
N41	3.145452	-4.535656	-0.639057
C42	4.030408	-5.556108	-0.900057
C43	6.034458	-5.904959	-2.233479
C44	4.057994	-6.872642	-0.426082
C45	6.071315	-7.210640	-1.761764
C46	5.090118	-7.690995	-0.868741
C47	10.338513	-0.084974	-0.402580
C48	10.395179	-0.370545	1.101697
C49	11.679855	-1.071804	1.586488
C50	12.935642	-0.215965	1.363726
C51	11.554921	-1.470299	3.064198
C52	3.085313	6.421000	-1.066469
O53	2.234248	6.025086	-0.025355
C54	-5.203041	-4.959424	5.126251
C55	-4.049957	-4.071048	4.707642
C56	-3.684926	-3.930565	3.362869
C57	-3.279117	-3.383238	5.658144
C58	-2.589762	-3.157503	2.971610
C59	-2.182887	-2.607554	5.288406
C60	-1.823098	-2.497041	3.938799
O61	-0.715875	-1.755087	3.645740
C62	-1.411721	-6.894758	6.854331
C63	-0.435076	-6.379728	7.921165
C64	0.455152	-5.260920	7.344212
C65	0.384739	-7.538198	8.508959
C66	1.328320	-4.534214	8.372663
C67	-8.692102	-0.070004	-3.298746
C68	-8.754865	-1.594668	-3.124385
C69	-9.956131	-1.986645	-2.240741
C70	-7.424018	-2.128042	-2.572440
C71	-10.220492	-3.492848	-2.140310
C72	-7.354527	-1.929614	4.228452
C73	-7.692605	-1.026535	3.066026
C74	-8.982942	-0.495298	2.923175
C75	-6.731904	-0.704791	2.099723
C76	-9.305095	0.333036	1.849080
C77	-7.049735	0.123331	1.020727
C78	-8.336609	0.647778	0.892691
C79	1.856153	-8.369980	2.839936
C80	1.214172	-7.162363	2.196985
C81	1.333074	-5.885780	2.758921
C82	0.495601	-7.277232	0.997671
C83	0.772066	-4.760912	2.150547
C84	-0.066176	-6.169308	0.369905
C85	0.074994	-4.896053	0.939924
O86	-0.488635	-3.840833	0.286725
C87	-2.274894	8.695623	2.012697
C88	-0.804478	9.116244	2.075374
C89	0.069484	8.030726	1.449719
O90	-0.230047	6.831244	1.803518
O91	0.959572	8.334583	0.631498
C92	-2.886860	5.992841	4.655921
C93	-1.536232	5.431357	5.164265
O94	-1.440824	4.930833	6.287576
C95	-4.082137	5.466976	5.456646
C96	-4.442936	3.987828	5.216264
C97	-5.453602	3.508334	6.267994
C98	-4.986487	3.740578	3.800729
N99	-0.495418	5.561187	4.300032
C100	0.892925	5.272018	4.660281
C101	1.636540	4.403877	3.636979
C102	3.131121	4.371250	3.983029
C103	1.040285	2.994521	3.566280
C104	-2.603437	6.002902	-1.468562
C105	-1.551465	4.992980	-1.168069
N106	-0.705075	5.119347	-0.085542
C107	-1.174728	3.841931	-1.813649
C108	0.148062	4.095755	-0.098699
N109	-0.111337	3.298196	-1.124169
C110	-2.131223	7.078956	-5.787221
C111	-3.217872	6.278092	-6.530093
C112	-3.486348	4.923969	-5.899645
C113	-2.502312	3.922809	-5.902638
C114	-4.708500	4.646288	-5.273882
C115	-2.725601	2.688393	-5.291471
C116	-4.943624	3.409936	-4.667454
C117	-3.951647	2.429266	-4.671661
O118	1.009249	1.153464	-3.567952
H119	3.795832	-0.615486	-4.891532
H120	2.988165	0.287014	-6.192984
H121	1.356769	-3.862664	-2.969833
H122	0.157315	-2.731684	-2.351288
H123	0.671365	-6.065351	-3.875782
H124	-2.226709	-3.373425	-2.209284
H125	-1.001324	-7.889993	-3.850350
H126	-3.910121	-5.185532	-2.197965
H127	-3.308664	-7.455061	-3.022274
H128	0.424897	-3.505770	-5.302969
H129	-3.540908	-4.366327	-7.551515
H130	-4.026092	-4.238697	-5.854149
H131	-3.457837	-1.916294	-7.773800
H132	-4.914073	-2.145784	-6.795787
H133	-2.850954	-0.559063	-5.868631
H134	-3.730538	-1.598704	-4.743928
H135	-1.674217	-4.526437	-5.555696
H136	3.422175	1.800865	-4.274564
H137	2.659071	2.896888	-3.145776
H138	4.232792	2.279364	-1.365735
H139	6.252206	-3.311893	-3.422477
H140	4.794828	-2.461034	-3.865432
H141	2.937840	-2.503853	-1.303091
H142	6.795449	-5.551347	-2.924191
H143	6.866441	-7.876581	-2.085579
H144	3.290325	-7.232276	0.252570
H145	5.142440	-8.719431	-0.521988
H146	6.250455	-1.698965	-1.303884
H147	9.535723	-0.996372	1.376449
H148	10.275446	0.569367	1.659741
H149	11.793884	-1.995571	0.998147
H150	13.833945	-0.734901	1.717157
H151	13.086985	0.023665	0.307065
H152	12.862600	0.731320	1.912929
H153	12.446590	-2.004071	3.412269
H154	10.688536	-2.119733	3.230588
H155	11.430715	-0.584139	3.698968
H156	11.102627	0.635476	-0.711998
H157	1.758429	6.839687	0.283656
H158	-5.914609	-5.101873	4.307378
H159	-5.749325	-4.535539	5.975409
H160	-4.259296	-4.446518	2.596945
H161	-3.543469	-3.452522	6.711100
H162	-2.317249	-3.093469	1.922195
H163	-1.597842	-2.072374	6.029420
H164	-0.610355	-1.618344	2.687701
H165	-1.029053	-5.940682	8.737958
H166	-0.269752	-8.317271	8.915866
H167	1.009924	-8.002829	7.735763
H168	1.045562	-7.209128	9.316928
H169	1.092604	-5.688343	6.556357
H170	-0.189370	-4.528731	6.842098
H171	0.717244	-4.105966	9.176079
H172	2.063195	-5.200839	8.835883
H173	1.880852	-3.712360	7.906102
H174	-8.914011	-2.040964	-4.118615
H175	-7.412912	-3.220553	-2.509988
H176	-6.585965	-1.827242	-3.211422
H177	-7.234859	-1.733033	-1.567336
H178	-9.804927	-1.572201	-1.234538
H179	-10.854372	-1.496328	-2.640267
H180	-10.361582	-3.937900	-3.132694
H181	-9.395209	-4.022075	-1.654007
H182	-11.124733	-3.693913	-1.556205
H183	-8.539163	0.424101	-2.332173
H184	-6.278667	-2.106277	4.299773
H185	-7.845306	-2.905779	4.128251
H186	-9.741029	-0.730602	3.667039
H187	-5.723628	-1.098937	2.196052
H188	-10.308887	0.740296	1.762548
H189	-6.283134	0.362817	0.290401
H190	-8.580565	1.306028	0.063755
H191	1.300294	-9.285336	2.613977
H192	1.902998	-8.265920	3.928553
H193	1.865749	-5.761396	3.698591
H194	0.375312	-8.256695	0.540467
H195	0.829384	-3.792135	2.639083
H196	-0.614552	-6.269463	-0.559662
H197	-0.147475	-2.986398	0.632151
H198	-0.625844	10.065798	1.562888
H199	-0.498399	9.243152	3.122324
H200	-2.603387	8.581461	0.972689
H201	-3.845935	5.599279	6.517465
H202	-4.963284	6.087702	5.238397
H203	-3.522977	3.403628	5.347618
H204	-5.226757	2.682155	3.647491
H205	-4.270051	4.032477	3.025903
H206	-5.907727	4.313339	3.631458
H207	-5.707846	2.451934	6.125328
H208	-5.053941	3.625357	7.280833
H209	-6.386874	4.083652	6.207336
H210	-2.835816	7.084803	4.755068
H211	1.535388	4.891088	2.658857
H212	1.549201	2.388591	2.808065
H213	1.142818	2.478165	4.528981
H214	-0.024705	3.030073	3.317954
H215	3.675100	3.727370	3.285751
H216	3.296472	3.981942	4.996434
H217	3.573721	5.370940	3.920603
H218	0.871971	4.782537	5.638950
H219	-3.167226	5.709565	-2.357894
H220	-3.312210	6.108717	-0.638827
H221	-1.582880	3.381103	-2.698871
H222	0.576385	2.355531	-1.186841
H223	0.961538	3.970406	0.593216
H224	-2.907776	6.140358	-7.574515
H225	-4.147643	6.857664	-6.557262
H226	-1.545627	4.114043	-6.382454
H227	-5.484678	5.408090	-5.261315
H228	-1.945067	1.932307	-5.282322
H229	-5.899539	3.217394	-4.187880
H230	-4.125397	1.469045	-4.194796
H231	-1.182313	6.535074	-5.765515
H232	0.411876	0.370143	-3.610397
H233	2.329484	-4.616703	-0.049894
H234	4.085080	-0.465089	-2.405514
H235	1.906200	-1.431274	-3.833934
H236	-0.602208	5.894244	0.629066
H237	-0.617166	6.073905	3.421411
H238	-2.167329	6.992040	-1.652427
H239	-2.424736	7.269455	-4.750378
H240	-1.954764	8.044106	-6.273845
H241	-2.060748	-7.681925	7.255249
H242	-2.048871	-6.089962	6.473983
H243	-0.868972	-7.316421	5.999327
H244	-4.853622	-5.954406	5.431034
H245	2.884696	-8.518284	2.485971
H246	9.366396	0.323751	-0.696968
H247	10.496428	-1.002841	-0.981971
H248	-2.929330	9.440810	2.480979
H249	1.435379	6.221013	4.777627
H250	-7.691297	-1.498931	5.177986
H251	-7.866253	0.223611	-3.956152
H252	-9.619736	0.322554	-3.730289
H253	4.042707	-1.067589	-6.603499
H254	-1.273213	-3.643767	-7.046536
H255	6.915585	-1.185980	-2.843151
C256	0.321183	-0.386423	-0.050514
C257	1.535905	0.582517	-0.016171
O258	0.505091	-1.380911	1.017736
H259	0.339968	-0.909359	-1.011511
H260	1.554514	1.047977	0.987207
H261	2.433165	-0.067349	-0.080392
C262	-1.030816	0.249882	0.152579
C263	-1.382988	0.802274	1.392855
C264	-1.943815	0.317413	-0.906025
C265	-2.618334	1.422319	1.566384
H266	-0.690856	0.747372	2.226903
C267	-3.176599	0.950975	-0.734475
H268	-1.684699	-0.107285	-1.872507
C269	-3.514965	1.508369	0.498548
H270	-2.877383	1.847613	2.530847
H271	-3.867441	1.017235	-1.570456
H272	-4.468454	2.010431	0.632375
H273	-2.422035	7.740841	2.512772
H274	-2.988461	5.791625	3.583842
H275	5.033625	2.956750	-2.778064
H276	7.194907	3.520512	0.054631
H277	7.807634	3.218881	3.043553
H278	8.325355	2.099240	1.774896
H279	8.942868	3.760113	1.795917
H280	5.431275	2.510799	2.342405
H281	4.792957	2.994300	0.767969
H282	5.921524	1.630747	0.882728
H283	7.405183	5.647630	1.488744
H284	5.993776	5.108397	2.385119
H285	5.633065	5.203832	-0.524435
H286	3.734783	8.283503	-0.189426
H287	4.891001	7.603080	-1.355872
H288	2.540711	6.925737	-1.882931
H289	3.522072	5.509595	-1.499360
H290	1.454545	-1.438348	1.205633