290

C1	-2.280208	8.002048	-0.202381
C2	-3.314261	0.448522	5.785921
C3	-2.357425	-0.747015	5.966242
C4	-3.120781	7.477502	-1.377338
O5	-3.068089	7.986955	-2.493958
O6	-2.025173	-1.165732	7.074320
N7	-1.886782	-1.281854	4.798756
N8	-3.986246	6.465698	-1.098016
C9	-0.831273	-2.278305	4.749835
C10	0.547963	-1.641952	5.023995
O11	0.866680	-0.577874	4.464021
C12	-0.850431	-2.936313	3.347305
C13	0.125707	-4.077868	3.167136
C14	-0.205720	-5.376357	3.584955
C15	1.380480	-3.867319	2.577814
C16	0.693028	-6.432870	3.426237
C17	2.281036	-4.922835	2.417130
C18	1.942449	-6.207945	2.843743
N19	1.412972	-2.276484	5.848113
C20	1.203224	-3.531477	6.613108
C21	2.595371	-3.834553	7.182720
C22	3.216738	-2.442090	7.369923
C23	2.724447	-1.670188	6.140385
C24	-3.766090	3.093389	2.059577
C25	-5.046374	2.233350	2.127858
O26	-6.141852	2.757390	1.902269
C27	-2.488275	2.822489	2.880067
C28	-1.711020	1.504472	2.793165
O29	-0.959264	1.617466	0.945302
O30	-2.282946	0.381081	2.739613
N31	-4.885621	0.903946	2.339200
C32	-5.967590	-0.064964	2.210395
C33	-5.551045	-1.455172	2.768813
C34	-5.691655	-2.579245	1.781179
C35	-4.689735	-3.129390	1.019802
C36	-6.903763	-3.264791	1.405376
C37	-6.555882	-4.225814	0.411983
C38	-8.247750	-3.161706	1.804445
N39	-5.199503	-4.122011	0.202670
C40	-7.506014	-5.068992	-0.174296
C41	-9.194859	-3.996771	1.222576
C42	-8.826626	-4.941064	0.241637
C43	-9.863774	2.024356	-0.054768
C44	-9.662012	0.681578	-0.765908
C45	-10.937179	0.054292	-1.362674
C46	-11.559114	0.925110	-2.464806
C47	-10.648771	-1.359602	-1.888739
C48	-4.965541	6.046890	-2.085121
C49	-5.791249	4.847197	-1.597350
C50	-7.054166	4.684911	-2.453743
C51	-4.967823	3.553301	-1.585194
C52	-1.551342	6.925268	0.607223
O53	-0.699740	6.151960	-0.198199
C54	4.459749	-6.455675	-4.390969
C55	3.834992	-5.189568	-3.846885
C56	3.359978	-5.117096	-2.530413
C57	3.757045	-4.023282	-4.623225
C58	2.847998	-3.934063	-1.996494
C59	0.400970	-7.705644	-6.143584
C60	3.252538	-2.832105	-4.107821
C61	2.798533	-2.772287	-2.781901
C62	-0.242605	-6.403047	-6.641551
C63	-0.040049	-5.270852	-5.615742
O64	2.339872	-1.582796	-2.324339
C65	-1.723157	-6.630348	-6.981832
C66	-0.468376	-3.879473	-6.093948
C67	8.636349	-1.666457	3.774590
C68	7.359468	-2.158368	3.078568
C69	7.548744	-3.591870	2.542219
C70	6.927131	-1.174031	1.981850
C71	6.262039	-4.254919	2.039311
C72	7.174787	-3.872711	-3.634928
C73	8.246247	-3.270910	-2.754760
C74	9.195151	-4.079792	-2.114928
C75	8.294126	-1.888698	-2.524907
C76	10.157883	-3.530118	-1.266575
C77	9.255405	-1.333194	-1.679625
C78	10.191839	-2.152235	-1.045081
C79	-3.230612	-8.102706	-2.190559
C80	-2.728993	-6.745688	-1.755265
C81	-3.026944	-5.585684	-2.479847
C82	-1.930324	-6.609017	-0.609024
C83	-2.555587	-4.329645	-2.081337
C84	4.393236	7.731741	-2.540508
C85	-1.448791	-5.371724	-0.196633
C86	3.029125	8.417292	-2.432738
C87	-1.762987	-4.224692	-0.934751
C88	2.021253	7.482241	-1.771466
O89	-1.299129	-3.025057	-0.467550
O90	2.098053	6.252036	-2.145751
O91	1.242013	7.918732	-0.901411
C92	4.502724	4.735666	-4.922911
C93	3.083069	4.535630	-5.490199
O94	2.920992	4.062409	-6.617862
C95	5.405802	3.534371	-5.245656
C96	4.933711	2.181108	-4.675095
C97	5.861326	1.053120	-5.150538
C98	4.818963	2.174111	-3.143596
N99	2.064667	4.899033	-4.668064
C100	0.657855	4.821189	-5.057205
C101	-0.250605	4.322299	-3.924299
C102	-1.722758	4.521279	-4.309434
C103	0.046407	2.860710	-3.576033
C104	4.034040	5.352244	1.158962
C105	2.799367	4.525677	0.968871
C106	2.187834	3.587458	1.764188
N107	2.014025	4.643073	-0.163025
C108	0.970342	3.828475	-0.045109
N109	1.047129	3.168582	1.105035
C110	4.531931	5.945734	6.206588
C111	4.447900	4.506742	5.730483
C112	3.259277	3.774169	5.875350
C113	5.526843	3.892581	5.081202
C114	3.143001	2.478061	5.370650
C115	5.421936	2.591683	4.582219
C116	4.227768	1.883267	4.719033
O117	1.038294	-1.387329	0.060754
H118	-3.865415	0.423725	4.847072
H119	-2.719615	1.367757	5.813705
H120	-1.873856	-3.284299	3.172937
O121	-0.561181	1.634622	3.509823
H122	-0.648962	-2.152538	2.611424
H123	-1.181925	-5.559918	4.027888
H124	1.643901	-2.875165	2.221344
H125	0.414666	-7.431580	3.751535
H126	3.246414	-4.731729	1.958326
H127	2.641827	-7.029104	2.715457
H128	-1.045743	-3.028359	5.515601
H129	2.541730	-4.416162	8.107008
H130	3.175108	-4.411963	6.453859
H131	2.829912	-1.976653	8.283396
H132	4.307580	-2.461446	7.438876
H133	2.612335	-0.597418	6.308383
H134	3.395960	-1.801650	5.281727
H135	0.838338	-4.329896	5.964478
H136	-2.714248	2.916824	3.950892
H137	-1.780949	3.625012	2.653352
H138	-3.478871	3.090320	1.000444
H139	-6.142419	-1.677659	3.664977
H140	-4.511191	-1.412307	3.107787
H141	-3.638593	-2.880279	0.977913
H142	-8.543155	-2.436762	2.558291
H143	-10.235292	-3.924541	1.526605
H144	-7.222437	-5.795888	-0.930535
H145	-9.588254	-5.579533	-0.197045
H146	-6.258525	-0.164125	1.156193
H147	-6.112931	5.050915	-0.564648
H148	-7.650447	3.833032	-2.111093
H149	-7.687252	5.578131	-2.412044
H150	-6.793386	4.508281	-3.504684
H151	-5.507044	2.757927	-1.062518
H152	-4.005389	3.693271	-1.084819
H153	-4.756176	3.216143	-2.606699
H154	-4.446279	5.801041	-3.018409
H155	0.272966	-6.107580	-7.568732
H156	0.030306	6.751665	-0.500342
H157	-2.289050	-6.905060	-6.082520
H158	5.509866	-6.552043	-4.087105
H159	4.436712	-6.472758	-5.485369
H160	-2.188667	-5.736041	-7.407056
H161	3.392069	-6.004424	-1.901666
H162	-1.842454	-7.441978	-7.708660
H163	4.108439	-4.044669	-5.652552
H164	-0.581154	-5.522589	-4.692570
H165	2.485297	-3.906890	-0.972456
H166	1.020786	-5.232307	-5.339316
H167	3.198117	-1.934988	-4.716316
H168	0.052524	-3.599420	-7.017169
H169	1.937362	-1.657969	-1.427841
H170	-1.544206	-3.820505	-6.289970
H171	-0.228220	-3.123771	-5.339656
H172	-0.077667	-8.046818	-5.217181
H173	6.560938	-2.192903	3.836689
H174	6.001893	-1.485591	1.488780
H175	6.754159	-0.174757	2.397095
H176	7.699980	-1.086556	1.208627
H177	8.296367	-3.578712	1.736629
H178	7.973822	-4.209357	3.345556
H179	5.493360	-4.253828	2.821389
H180	5.851948	-3.739597	1.165476
H181	6.437804	-5.296519	1.749928
H182	9.471879	-1.615661	3.065263
H183	6.265494	-4.073373	-3.059518
H184	7.505841	-4.817094	-4.077160
H185	9.178372	-5.154163	-2.283827
H186	7.569380	-1.241868	-3.012893
H187	10.885670	-4.177723	-0.784707
H188	9.274809	-0.258578	-1.520587
H189	10.943490	-1.720244	-0.390409
H190	3.078172	9.346300	-1.857588
H191	2.659319	8.673508	-3.434398
H192	-2.409847	-8.740950	-2.539956
H193	4.752430	7.413318	-1.555352
H194	-3.950654	-8.017715	-3.009562
H195	5.459363	3.445381	-6.336052
H196	6.423500	3.745555	-4.886217
H197	-3.640006	-5.655529	-3.375052
H198	-1.681223	-7.490897	-0.023686
H199	3.937018	1.987981	-5.092153
H200	-2.802633	-3.439345	-2.653542
H201	5.506299	0.075912	-4.802776
H202	-0.833312	-5.276353	0.691248
H203	5.920776	1.019051	-6.244133
H204	-1.489631	-2.300341	-1.090438
H205	6.880848	1.193446	-4.767071
H206	4.474373	1.197976	-2.784243
H207	4.107197	2.922124	-2.781652
H208	5.790518	2.380339	-2.674652
H209	4.922789	5.636362	-5.387922
H210	-0.052454	4.945076	-3.041899
H211	-2.381321	4.130446	-3.527614
H212	-1.963203	3.994111	-5.242078
H213	-1.960206	5.582119	-4.441770
H214	-0.567216	2.517554	-2.737691
H215	-0.172068	2.204794	-4.427904
H216	1.099608	2.719183	-3.312542
H217	0.602510	4.158572	-5.926508
H218	4.514644	5.098899	2.106935
H219	4.755576	5.182288	0.352285
H220	2.468199	3.199039	2.729704
H221	0.160001	3.742382	-0.747230
H222	4.205089	6.009902	7.252602
H223	5.575192	6.280402	6.183462
H224	6.458160	4.441750	4.961480
H225	2.408186	4.229886	6.375837
H226	6.271065	2.137175	4.078807
H227	2.205949	1.935057	5.459965
H228	4.131127	0.880326	4.314324
H229	-10.639981	1.950085	0.716897
H230	-10.162238	2.817113	-0.748704
H231	-9.224439	-0.033776	-0.057780
H232	-8.918729	0.801669	-1.567635
H233	-11.673835	-0.032815	-0.548436
H234	-12.460938	0.456899	-2.875896
H235	-11.839883	1.916335	-2.095771
H236	-10.852612	1.065931	-3.292664
H237	-11.555008	-1.830017	-2.288001
H238	-10.248604	-2.008098	-1.102025
H239	-9.908688	-1.329307	-2.698352
H240	-0.178888	0.749914	3.712887
H241	0.283783	-1.949228	0.297189
H242	-5.630129	6.891566	-2.318446
H243	5.147096	8.407766	-2.961962
H244	8.933086	-2.335965	4.589922
H245	-4.001997	0.463937	6.633315
H246	-6.846089	0.329362	2.731071
H247	-4.099752	4.109805	2.285489
H248	0.304112	-8.509418	-6.882482
H249	6.891342	-3.195315	-4.444978
H250	0.310801	5.812572	-5.384850
H251	3.937857	-7.349864	-4.032368
H252	-3.722073	-8.633711	-1.367545
H253	2.087111	5.339318	-0.985088
H254	1.466873	-7.567681	-5.932368
H255	2.258416	5.399725	-3.797547
H256	-2.038368	-0.729388	3.943789
H257	-3.922801	0.559709	2.430378
H258	-8.938680	2.344488	0.437461
H259	-4.658247	-4.640575	-0.472871
C260	0.744900	-0.006341	0.375181
C261	-0.759309	0.336858	0.423583
H262	1.164911	0.227093	1.359838
H263	1.271267	0.595730	-0.371716
C264	-3.077728	-0.311330	-3.216208
C265	-1.697744	-0.500978	-3.248554
C266	-3.682302	0.102079	-2.023996
C267	-0.923004	-0.282772	-2.099526
H268	-1.208230	-0.809154	-4.168330
C269	-2.911832	0.320381	-0.884799
H270	-4.757120	0.251625	-1.981958
C271	-1.518764	0.131007	-0.897275
H272	0.146279	-0.445214	-2.163803
H273	-3.388212	0.633156	0.037450
H274	-3.676515	-0.476175	-4.107584
H275	-1.208344	-0.396003	1.124696
H276	3.789887	6.420404	1.166554
H277	4.332778	6.850388	-3.173491
H278	4.460653	4.919040	-3.845850
H279	8.500117	-0.664450	4.196076
H280	0.466694	-3.357791	7.407659
C281	3.664145	6.884877	5.347861
H282	2.612957	6.583165	5.372052
H283	3.726875	7.917931	5.706708
H284	3.986932	6.868696	4.302403
H285	-4.054436	6.103984	-0.159117
H286	-1.546890	8.686861	-0.634898
H287	-2.938741	8.587097	0.456872
H288	-1.006251	7.416785	1.431140
H289	-2.267062	6.238691	1.083178
H290	0.275725	2.423678	1.281504