279

C1	2.857865	-0.802338	-6.037804
C2	1.773795	-1.884963	-5.905557
O3	1.317494	-2.463281	-6.895772
N4	1.362985	-2.152726	-4.633007
C5	0.278007	-3.083217	-4.361099
C6	-1.088149	-2.387251	-4.514938
O7	-1.274725	-1.244875	-4.061964
C8	0.449756	-3.699880	-2.948283
C9	-0.531532	-4.811454	-2.646762
C10	-0.341669	-6.098098	-3.173087
C11	-1.653555	-4.582056	-1.840063
C12	-1.257322	-7.122285	-2.922136
C13	-2.573424	-5.601144	-1.590967
C14	-2.383018	-6.873113	-2.134872
N15	-2.097130	-3.046552	-5.134797
C16	-2.057764	-4.366965	-5.802421
C17	-3.536864	-4.658914	-6.086988
C18	-4.138002	-3.263343	-6.314557
C19	-3.408382	-2.394254	-5.282401
C20	3.963022	2.277529	-2.816482
C21	5.113999	1.251315	-2.861853
O22	6.276595	1.660275	-2.984040
C23	2.525576	1.984069	-3.320214
C24	1.627309	0.799786	-2.867464
O25	1.009573	1.267085	-1.239191
O26	2.117020	-0.368726	-2.723885
N27	4.807387	-0.054601	-2.694358
C28	5.844525	-1.082338	-2.708129
C29	5.260300	-2.512143	-2.712491
C30	5.166353	-3.159541	-1.361040
C31	4.037993	-3.406532	-0.613374
C32	6.275153	-3.671127	-0.594508
C33	5.735718	-4.216490	0.609196
C34	7.664032	-3.740394	-0.802598
N35	4.377163	-4.034704	0.565627
C36	6.542910	-4.816539	1.582042
C37	8.469568	-4.334934	0.164334
C38	7.912965	-4.867571	1.346464
C39	10.142584	0.887096	-1.182866
C40	9.850070	0.101785	0.100726
C41	11.092209	-0.390093	0.869493
C42	11.985602	0.764484	1.348121
C43	10.676419	-1.277634	2.052049
C44	3.183648	7.583030	-1.183767
C45	4.578910	7.207557	-0.713753
O46	5.589370	7.762940	-1.138634
N47	4.627869	6.182505	0.194142
C48	5.882182	5.642666	0.695717
C49	6.238361	4.237674	0.170240
C50	7.683586	3.891398	0.552455
C51	5.271245	3.162167	0.681338
C52	-3.309703	-4.233524	5.510747
C53	-2.725745	-4.462622	4.256789
C54	-3.091020	-2.989842	6.118812
C55	-1.941390	-3.494743	3.620226
C56	-2.313410	-2.013940	5.498393
C57	-1.719408	-2.250936	4.241536
O58	-0.967977	-1.259437	3.726366
C59	-0.182993	-6.769862	7.294007
C60	0.864382	-5.684186	7.583864
C61	0.653935	-4.474621	6.652023
C62	2.281792	-6.268235	7.485113
C63	1.537063	-3.259117	6.952045
C64	-8.926596	-1.358997	-2.551710
C65	-8.513740	-2.834431	-2.438834
C66	-9.381689	-3.553284	-1.386286
C67	-7.011619	-2.952164	-2.140842
C68	-9.162908	-5.067146	-1.291687
C69	-6.832350	-2.643233	4.922972
C70	-7.123363	-1.899925	3.642311
C71	-8.415811	-1.441992	3.348130
C72	-6.096672	-1.627564	2.729738
C73	-8.673327	-0.716765	2.184800
C74	-6.349067	-0.907255	1.561137
C75	-7.637056	-0.442215	1.288817
C76	2.357065	-6.826304	2.502615
C77	2.293490	-5.534942	3.038871
C78	1.796978	-7.038734	1.235058
C79	1.705326	-4.479704	2.335118
C80	1.208300	-6.004769	0.519329
C81	1.139119	-4.669804	1.032090
O82	0.618191	-3.703472	0.336854
C83	-3.178859	8.340187	1.820644
C84	-1.759052	8.866861	2.061113
C85	-0.700254	8.009113	1.342981
O86	-0.890437	6.731478	1.485456
O87	0.210705	8.546669	0.707410
C88	-3.280644	5.735644	4.626382
C89	-1.827112	5.418700	5.051457
O90	-1.566501	5.096229	6.213646
C91	-4.312942	5.163750	5.602445
C92	-4.491834	3.634051	5.546048
C93	-5.298226	3.145292	6.758168
C94	-5.153913	3.171153	4.240084
N95	-0.885119	5.546263	4.078388
C96	0.546683	5.438027	4.363020
C97	1.354027	4.787353	3.232819
C98	2.851178	4.915867	3.545513
C99	0.948621	3.326043	3.019320
C100	-3.453792	5.440531	-1.495115
C101	-2.135280	4.731534	-1.370782
C102	-1.655086	3.598889	-1.985457
N103	-1.143883	5.134600	-0.493584
C104	-0.138645	4.258659	-0.573255
N105	-0.405756	3.317592	-1.473007
C106	-4.468164	5.367741	-6.498921
C107	-4.452185	3.991134	-5.857102
C108	-3.291020	3.201791	-5.876554
C109	-5.582740	3.485291	-5.203332
C110	-3.252725	1.955140	-5.251110
C111	-5.556709	2.232893	-4.584506
C112	-4.390850	1.467239	-4.602399
O113	0.463435	0.921915	-3.610782
O114	0.415718	-1.363016	1.326694
H115	3.355102	-0.578348	-5.093821
H116	2.386078	0.111545	-6.413226
H117	1.472641	-4.087177	-2.900302
H118	0.375125	-2.926757	-2.181150
H119	0.541115	-6.300397	-3.776152
H120	-1.780185	-3.609090	-1.377147
H121	-1.085301	-8.114362	-3.332128
H122	-3.431392	-5.404870	-0.953665
H123	-3.094604	-7.668691	-1.929745
H124	0.352343	-3.873513	-5.112642
H125	-3.667629	-5.334236	-6.937625
H126	-3.992292	-5.128764	-5.208096
H127	-3.905893	-2.915079	-7.327763
H128	-5.224191	-3.232883	-6.190100
H129	-3.279952	-1.355729	-5.594784
H130	-3.929712	-2.386438	-4.315771
H131	-1.606345	-5.121371	-5.158919
H132	2.573269	1.825371	-4.404145
H133	1.944377	2.902825	-3.190906
H134	3.913368	2.609832	-1.771890
H135	5.905017	-3.130364	-3.351997
H136	4.278516	-2.503928	-3.199069
H137	2.997492	-3.189876	-0.816509
H138	8.105653	-3.338646	-1.711372
H139	9.543393	-4.397343	0.005998
H140	6.106804	-5.233603	2.485299
H141	8.565177	-5.328760	2.083757
H142	6.515200	-0.954805	-1.848904
H143	3.243308	8.539370	-1.703987
H144	6.174116	4.264204	-0.925121
H145	7.960953	2.909606	0.157510
H146	8.390091	4.627554	0.152814
H147	7.808357	3.863103	1.643048
H148	5.499994	2.188862	0.237459
H149	4.230296	3.395039	0.431496
H150	5.337599	3.056635	1.771837
H151	5.856216	5.626030	1.794997
H152	-2.870307	-5.418787	3.759840
H153	-3.529789	-2.774546	7.090731
H154	-1.485219	-3.699975	2.655301
H155	-2.141699	-1.051193	5.969763
H156	-0.555326	-1.436158	2.841507
H157	0.714323	-5.338679	8.619904
H158	2.487773	-6.608470	6.462991
H159	3.048326	-5.533802	7.751710
H160	2.402629	-7.129930	8.153100
H161	0.809436	-4.792747	5.612955
H162	-0.396630	-4.167577	6.713573
H163	1.412632	-2.922287	7.989335
H164	2.600900	-3.469458	6.797668
H165	1.271050	-2.423583	6.297649
H166	-0.064351	-7.158552	6.275639
H167	-8.706409	-3.313491	-3.412188
H168	-6.672069	-3.992235	-2.133185
H169	-6.420506	-2.421421	-2.895605
H170	-6.772341	-2.515165	-1.164721
H171	-9.198434	-3.094338	-0.405141
H172	-10.438664	-3.362390	-1.619913
H173	-9.319804	-5.552974	-2.262635
H174	-8.150512	-5.313134	-0.958039
H175	-9.859654	-5.520213	-0.578128
H176	-8.777214	-0.842411	-1.597073
H177	-5.890020	-3.192333	4.857875
H178	-7.633005	-3.350158	5.168719
H179	-9.226520	-1.651401	4.043245
H180	-5.088756	-1.976745	2.938221
H181	-9.680422	-0.362233	1.979576
H182	-5.531579	-0.702481	0.877960
H183	-7.828945	0.136303	0.389490
H184	1.829987	-8.034578	0.793883
H185	2.719149	-5.337156	4.021950
H186	0.785065	-6.186409	-0.463647
H187	1.663356	-3.481642	2.764534
H188	0.527329	-2.293050	0.906907
H189	-1.652274	9.906301	1.735591
H190	-1.537886	8.837917	3.137477
H191	-3.445361	8.407834	0.758786
H192	-3.993172	5.441413	6.612184
H193	-5.286066	5.643952	5.423003
H194	-3.492091	3.185709	5.609858
H195	-5.424096	2.056949	6.739920
H196	-4.801008	3.411955	7.697103
H197	-6.300805	3.593917	6.770081
H198	-5.227013	2.079303	4.196222
H199	-4.595609	3.496553	3.356431
H200	-6.171544	3.575395	4.155085
H201	-3.373032	6.829267	4.593887
H202	1.135912	5.354987	2.317613
H203	3.464117	4.470041	2.755583
H204	3.102681	4.397936	4.479696
H205	3.150518	5.964823	3.653277
H206	1.493553	2.876374	2.181783
H207	1.159414	2.724951	3.912204
H208	-0.120938	3.247322	2.809672
H209	0.644459	4.863501	5.289435
H210	-4.076916	4.933054	-2.235620
H211	-3.990554	5.443306	-0.540159
H212	-2.117610	2.964588	-2.723907
H213	0.749433	4.300566	0.036291
H214	-4.272932	5.275009	-7.576271
H215	-5.470300	5.801480	-6.403286
H216	-6.492200	4.081689	-5.174155
H217	-2.398769	3.571088	-6.375726
H218	-6.444694	1.862592	-4.078795
H219	-2.337317	1.369889	-5.246603
H220	-4.355183	0.501918	-4.107581
H221	10.783346	0.309031	-1.860753
H222	10.647386	1.837454	-0.979524
H223	9.232276	-0.770180	-0.147813
H224	9.238585	0.719340	0.774165
H225	11.685606	-1.007977	0.176589
H226	12.857459	0.387636	1.896202
H227	12.354480	1.372175	0.515958
H228	11.431402	1.428071	2.023837
H229	11.551162	-1.679322	2.577911
H230	10.058889	-2.119489	1.722683
H231	10.088588	-0.703795	2.779206
H232	0.226260	2.317033	-1.471208
H233	6.649715	6.357775	0.389744
H234	2.822716	6.828549	-1.892966
H235	2.443641	7.662376	-0.378474
H236	-3.926660	8.912795	2.383198
H237	-9.984291	-1.258640	-2.822455
H238	3.585184	-1.133914	-6.782476
H239	6.463695	-0.920971	-3.599585
H240	4.335701	3.135534	-3.382225
H241	2.822692	-7.638286	3.054285
H242	-0.089423	-7.614770	7.987473
H243	-6.743109	-1.949330	5.768421
H244	0.958453	6.439570	4.562347
H245	-3.910403	-4.997633	5.994824
H246	-1.119911	5.906228	0.258317
H247	0.008722	0.054256	-3.648049
H248	-1.199965	-6.371417	7.375175
H249	-1.123641	5.951006	3.165137
H250	1.661040	-1.524100	-3.866058
H251	3.757790	5.802205	0.534487
H252	3.815259	-0.308560	-2.572522
H253	9.214120	1.114132	-1.717385
H254	3.697989	-4.336464	1.258410
C255	0.307282	0.161702	-0.619833
C256	1.112087	-0.370009	0.589602
H257	1.344751	0.465183	1.262432
H258	0.257480	-0.652365	-1.352291
C259	-1.125152	0.538553	-0.245110
C260	-1.432129	1.135548	0.985485
C261	-2.173364	0.306586	-1.146055
C262	-2.732084	1.534193	1.290414
H263	-0.652984	1.276830	1.724240
C264	-3.478549	0.703928	-0.844297
H265	-1.965232	-0.181732	-2.093529
C266	-3.760842	1.335324	0.367946
H267	-2.942253	1.991812	2.252876
H268	-4.275109	0.528343	-1.563270
H269	-4.772796	1.654182	0.602644
H270	2.069071	-0.750321	0.209736
H271	-3.326525	6.483939	-1.806309
H272	-3.250348	7.292195	2.111603
H273	-3.447627	5.389778	3.600320
H274	-8.334693	-0.835659	-3.310776
H275	-1.471493	-4.294994	-6.728022
C276	-3.428297	6.323312	-5.882792
H277	-2.412158	5.936652	-5.999669
H278	-3.468525	7.308432	-6.360692
H279	-3.607150	6.456722	-4.811580