279

C1	2.332946	-0.600011	-6.312672
C2	1.133867	-1.562288	-6.251024
O3	0.593721	-1.991919	-7.273446
N4	0.726580	-1.894112	-4.994271
C5	-0.454376	-2.703186	-4.738849
C6	-1.728131	-1.835121	-4.772854
O7	-1.764976	-0.733902	-4.200211
C8	-0.307796	-3.407639	-3.364326
C9	-1.470256	-4.306533	-2.999544
C10	-1.642526	-5.550163	-3.625451
C11	-2.398621	-3.919759	-2.023179
C12	-2.727871	-6.372297	-3.313341
C13	-3.486272	-4.736719	-1.712239
C14	-3.661373	-5.960976	-2.361004
N15	-2.824490	-2.309919	-5.418448
C16	-2.969162	-3.566239	-6.192206
C17	-4.481853	-3.657839	-6.430974
C18	-4.921565	-2.187564	-6.507588
C19	-4.057314	-1.506808	-5.438914
C20	3.895714	2.022859	-2.883072
C21	4.892694	0.877460	-3.172891
O22	6.047432	1.145155	-3.529596
C23	2.413152	1.987414	-3.342811
C24	1.422989	0.858052	-2.979480
O25	1.047672	1.167707	-1.133041
O26	1.777160	-0.357191	-3.009927
N27	4.478986	-0.387726	-2.920574
C28	5.358979	-1.531424	-3.140788
C29	4.634315	-2.885715	-3.029897
C30	4.566312	-3.468218	-1.648192
C31	3.449837	-3.634894	-0.863282
C32	5.671308	-4.014767	-0.900153
C33	5.140649	-4.495297	0.336058
C34	7.046319	-4.172288	-1.148026
N35	3.792785	-4.240501	0.326048
C36	5.943895	-5.112494	1.300376
C37	7.847757	-4.787099	-0.189579
C38	7.300957	-5.251717	1.024676
C39	9.906233	-0.229491	-1.622281
C40	9.505515	-0.760976	-0.241844
C41	10.663772	-1.318601	0.608113
C42	11.718967	-0.253106	0.941774
C43	10.124790	-1.967323	1.891784
C44	3.812012	7.213085	-0.767389
C45	5.108968	6.741332	-0.133582
O46	6.043217	7.504600	0.101133
N47	5.156257	5.407027	0.176375
C48	6.309125	4.805379	0.828523
C49	7.231178	4.003311	-0.111083
C50	8.604657	3.789952	0.539287
C51	6.587520	2.670037	-0.500778
C52	-3.867323	-4.313030	5.130710
C53	-3.375274	-4.591321	3.849453
C54	-3.707128	-3.019282	5.640345
C55	-2.754043	-3.607021	3.078932
C56	-3.095081	-2.023706	4.881944
C57	-2.617412	-2.300956	3.585522
O58	-2.066614	-1.283567	2.899509
C59	-1.020303	-7.351861	6.562248
C60	0.004498	-6.367940	7.146184
C61	-0.088217	-5.005909	6.430450
C62	1.417044	-6.969425	7.092921
C63	0.771578	-3.894061	7.040588
C64	-9.326212	-0.076206	-2.423462
C65	-8.825031	-1.522353	-2.291968
C66	-9.667111	-2.289580	-1.252760
C67	-7.324833	-1.545614	-1.962290
C68	-9.364488	-3.788641	-1.156011
C69	-7.187092	-2.271447	4.822991
C70	-7.441193	-1.262159	3.727304
C71	-8.740141	-0.840584	3.416385
C72	-6.372263	-0.708577	3.005801
C73	-8.970904	0.113405	2.422406
C74	-6.597647	0.243786	2.011835
C75	-7.898588	0.661768	1.717630
C76	1.354297	-7.272661	1.687055
C77	1.299197	-6.066996	2.398013
C78	0.991283	-7.243540	0.332887
C79	0.907862	-4.869433	1.788796
C80	0.603337	-6.064619	-0.291378
C81	0.547089	-4.812415	0.402644
O82	0.234652	-3.712988	-0.216634
C83	-2.322271	8.439983	2.541171
C84	-0.830459	8.773243	2.663696
C85	0.013030	7.839921	1.779363
O86	-0.286433	6.584100	1.940251
O87	0.851818	8.298993	1.000424
C88	-2.657254	5.621889	5.112612
C89	-1.240392	5.124620	5.468187
O90	-1.019469	4.588111	6.557770
C91	-3.750547	4.782735	5.784365
C92	-3.878213	3.333716	5.274346
C93	-4.878244	2.553224	6.139881
C94	-4.278429	3.257793	3.793617
N95	-0.288824	5.341431	4.524917
C96	1.096635	4.899866	4.672944
C97	1.582497	4.056095	3.485908
C98	3.060577	3.689403	3.676167
C99	0.711550	2.811703	3.296009
C100	-3.042200	5.905915	-0.999746
C101	-1.934503	4.884840	-0.868474
C102	-1.706359	3.681944	-1.505135
N103	-0.883717	5.044075	0.019343
C104	-0.081004	3.983230	-0.084711
N105	-0.543255	3.132906	-0.996672
C106	-4.202516	6.407641	-5.946890
C107	-4.354870	5.012897	-5.364899
C108	-3.366704	4.038337	-5.575529
C109	-5.446668	4.680558	-4.552584
C110	-3.453400	2.778949	-4.980400
C111	-5.546469	3.418433	-3.960822
C112	-4.547329	2.466452	-4.167766
O113	0.205760	1.204167	-3.512480
O114	-0.911432	-1.545500	0.539519
H115	2.855185	-0.510376	-5.360286
H116	1.967747	0.388323	-6.610762
H117	0.618393	-3.990264	-3.400017
H118	-0.167456	-2.657910	-2.584183
H119	-0.907612	-5.884966	-4.355249
H120	-2.236829	-2.999901	-1.470894
H121	-2.835640	-7.336125	-3.804905
H122	-4.188753	-4.422544	-0.944853
H123	-4.504148	-6.599505	-2.108938
H124	-0.508224	-3.447371	-5.537453
H125	-4.722990	-4.232955	-7.329931
H126	-4.957497	-4.151202	-5.575928
H127	-4.686900	-1.776777	-7.496590
H128	-5.991402	-2.045018	-6.330263
H129	-3.825003	-0.462980	-5.661912
H130	-4.536242	-1.533519	-4.451012
H131	-2.591736	-4.419691	-5.629646
H132	2.385405	1.989372	-4.440362
H133	1.953415	2.931666	-3.035704
H134	3.895446	2.155667	-1.794753
H135	5.172746	-3.587931	-3.682070
H136	3.627171	-2.798227	-3.454140
H137	2.411132	-3.388663	-1.045306
H138	7.481386	-3.825179	-2.082114
H139	8.910092	-4.917957	-0.380401
H140	5.517009	-5.475637	2.231085
H141	7.948528	-5.730871	1.754613
H142	6.192738	-1.493690	-2.428883
H143	4.016661	8.124381	-1.330926
H144	7.367399	4.612336	-1.014577
H145	9.258164	3.198584	-0.111102
H146	9.103721	4.743202	0.747988
H147	8.508720	3.246938	1.488354
H148	7.064417	2.194846	-1.361254
H149	5.540171	2.813418	-0.775745
H150	6.608548	1.970253	0.344146
H151	5.961740	4.159771	1.646178
H152	-3.467722	-5.593637	3.439110
H153	-4.065721	-2.779409	6.638784
H154	-2.363873	-3.841681	2.092700
H155	-2.965832	-1.018366	5.271006
H156	-1.688449	-1.533648	2.005417
H157	-0.250752	-6.204421	8.205997
H158	1.729087	-7.132646	6.054191
H159	2.159481	-6.317889	7.564134
H160	1.453481	-7.937975	7.606034
H161	0.178637	-5.136700	5.372880
H162	-1.136076	-4.682954	6.430477
H163	0.538687	-3.748263	8.103146
H164	1.842802	-4.107654	6.962139
H165	0.590484	-2.943744	6.529284
H166	-0.807450	-7.550609	5.505161
H167	-8.967730	-2.017263	-3.265933
H168	-6.919732	-2.561619	-1.949586
H169	-6.751438	-0.975997	-2.702215
H170	-7.134036	-1.099905	-0.979024
H171	-9.523310	-1.823353	-0.268313
H172	-10.729738	-2.157527	-1.501506
H173	-9.480033	-4.281035	-2.129360
H174	-8.344610	-3.977209	-0.808411
H175	-10.044282	-4.281282	-0.452437
H176	-9.208260	0.460507	-1.474274
H177	-6.443750	-3.014434	4.522315
H178	-8.107970	-2.792289	5.104688
H179	-9.581334	-1.263437	3.961700
H180	-5.356656	-1.027142	3.224334
H181	-9.987657	0.429112	2.202121
H182	-5.754149	0.659713	1.468531
H183	-8.071884	1.410574	0.949598
H184	1.020978	-8.163399	-0.250825
H185	1.578438	-6.050522	3.451481
H186	0.330798	-6.066602	-1.342626
H187	0.874821	-3.945798	2.362521
H188	-0.353720	-2.355191	0.254182
H189	-0.624136	9.811732	2.387412
H190	-0.511568	8.635414	3.705887
H191	-2.676282	8.613752	1.517479
H192	-3.530476	4.756567	6.856951
H193	-4.718462	5.291025	5.660840
H194	-2.895229	2.859215	5.390457
H195	-4.959865	1.511288	5.811183
H196	-4.576591	2.554070	7.193295
H197	-5.881163	2.996476	6.078239
H198	-4.376852	2.216848	3.468815
H199	-3.539721	3.732984	3.141046
H200	-5.245077	3.750459	3.622972
H201	-2.733455	6.660864	5.460220
H202	1.495908	4.691416	2.593035
H203	3.429850	3.090186	2.837793
H204	3.200504	3.090651	4.584675
H205	3.687941	4.584617	3.762188
H206	1.039979	2.218607	2.439719
H207	0.764265	2.159977	4.175892
H208	-0.337906	3.082030	3.146227
H209	1.146785	4.325621	5.603088
H210	-3.767557	5.572737	-1.745863
H211	-3.563291	6.046739	-0.046758
H212	-2.272778	3.189264	-2.279498
H213	0.810301	3.828124	0.500928
H214	-4.027354	6.342362	-7.028923
H215	-5.136298	6.966137	-5.813521
H216	-6.223897	5.421142	-4.376010
H217	-2.508041	4.272484	-6.200381
H218	-6.400472	3.183756	-3.330972
H219	-2.665358	2.045083	-5.125351
H220	-4.605791	1.490287	-3.695778
H221	10.427217	-0.999214	-2.205839
H222	10.569715	0.639525	-1.554509
H223	8.760070	-1.555258	-0.370398
H224	9.002188	0.036965	0.322476
H225	11.157948	-2.105725	0.016308
H226	12.527030	-0.675425	1.551158
H227	12.172372	0.174513	0.041905
H228	11.271332	0.571164	1.511382
H229	10.933823	-2.407386	2.487523
H230	9.399851	-2.755460	1.664653
H231	9.618877	-1.223540	2.519923
H232	0.043694	2.156106	-1.154205
H233	6.863487	5.638211	1.269034
H234	3.387416	6.460897	-1.440790
H235	3.051842	7.445121	-0.009659
H236	-2.935382	9.057446	3.209139
H237	-10.387392	-0.041544	-2.696675
H238	3.016400	-0.950141	-7.089793
H239	5.810042	-1.429207	-4.137015
H240	4.357217	2.914620	-3.313200
H241	1.667209	-8.194784	2.168610
H242	-1.003627	-8.311519	7.093060
H243	-6.793166	-1.783435	5.722569
H244	1.751647	5.775632	4.788051
H245	-4.348110	-5.088241	5.720247
H246	-0.668276	5.810933	0.767746
H247	-0.352822	0.401001	-3.599790
H248	-2.036477	-6.947493	6.621044
H249	-0.514158	5.810051	3.640829
H250	1.121429	-1.373008	-4.197835
H251	4.351564	4.833959	-0.025796
H252	3.471636	-0.539662	-2.784027
H253	9.022024	0.076065	-2.191491
H254	3.109656	-4.530857	1.017583
C255	-0.597680	-0.303116	-0.088569
C256	0.895395	-0.046248	-0.399651
H257	-1.131936	-0.216023	-1.046607
H258	-0.981447	0.487012	0.570465
C259	3.712398	-0.271260	2.916553
C260	2.359308	-0.505720	3.149064
C261	4.134299	0.047007	1.622935
C262	1.431882	-0.418429	2.105646
H263	2.012668	-0.759645	4.147718
C264	3.208493	0.133241	0.585212
H265	5.189139	0.206924	1.416040
C266	1.840297	-0.094112	0.804629
H267	0.390398	-0.622284	2.316792
H268	3.552243	0.344722	-0.420578
H269	4.432847	-0.347009	3.726993
H270	1.215115	-0.862085	-1.066271
H271	-2.646751	6.879641	-1.309237
H272	-2.497491	7.391578	2.778217
H273	-2.784015	5.651614	4.026441
H274	-8.763944	0.473318	-3.186511
H275	-2.411295	-3.487003	-7.134627
C276	-3.037199	7.173962	-5.292033
H277	-2.089968	6.645137	-5.431070
H278	-2.930478	8.176041	-5.722429
H279	-3.197780	7.281707	-4.215061