290

C1	2.053546	8.092474	-0.468227
C2	2.935034	7.709297	0.731149
O3	2.877380	8.315748	1.798103
N4	3.826044	6.698753	0.533472
C5	4.848883	6.421429	1.525080
C6	5.528359	5.062630	1.284795
C7	6.796134	4.947928	2.141789
C8	4.575116	3.890052	1.552563
C9	3.290635	0.076543	-5.778282
C10	2.393034	-1.174672	-5.819779
O11	2.089374	-1.731583	-6.873570
N12	1.946033	-1.605443	-4.600142
C13	0.940106	-2.640743	-4.451337
C14	-0.470433	-2.089823	-4.739706
O15	-0.820891	-0.989942	-4.271699
C16	1.022243	-3.223102	-3.019102
C17	0.117206	-4.410420	-2.772357
C18	0.498692	-5.697548	-3.182319
C19	-1.117535	-4.258334	-2.126509
C20	-0.332761	-6.797862	-2.964909
C21	-1.951587	-5.356387	-1.905289
C22	-1.563744	-6.629669	-2.326821
N23	-1.325126	-2.832520	-5.479782
C24	-1.073425	-4.135412	-6.152185
C25	-2.465080	-4.549573	-6.647249
C26	-3.160993	-3.208491	-6.925099
C27	-2.673661	-2.316425	-5.777771
C28	3.699368	3.061760	-2.313423
C29	5.022850	2.263068	-2.312456
O30	6.090591	2.851383	-2.124769
C31	2.488894	2.684379	-3.188895
C32	1.760455	1.355720	-3.015179
O33	0.914657	1.715872	-1.040287
O34	2.318071	0.278638	-2.718746
N35	4.920252	0.916522	-2.451682
C36	6.024473	-0.008597	-2.228052
C37	5.677737	-1.434366	-2.740716
C38	5.895918	-2.516367	-1.721286
C39	4.923207	-3.132196	-0.972624
C40	7.151535	-3.078290	-1.287903
N41	5.491523	-4.048924	-0.107779
C42	6.858294	-4.034685	-0.272450
C43	8.493046	-2.869681	-1.652901
C44	7.860503	-4.767780	0.372247
C45	9.491334	-3.595817	-1.013453
C46	9.177227	-4.534792	-0.008915
C47	9.871101	2.427081	-0.240759
C48	9.761258	1.144871	0.592170
C49	11.064893	0.687328	1.275916
C50	11.588985	1.714188	2.290816
C51	10.871513	-0.682194	1.943934
C52	1.282755	6.916301	-1.064655
O53	0.523254	6.276575	-0.075717
C54	-4.015975	-6.182031	5.135153
C55	-3.144617	-5.238584	4.335058
C56	-2.491856	-5.668197	3.171455
C57	-2.953027	-3.906220	4.727471
C58	-1.678958	-4.814117	2.429335
C59	-2.147675	-3.034073	3.995553
C60	-1.500119	-3.486280	2.840943
O61	-0.717995	-2.602752	2.163163
C62	0.120191	-7.108909	6.906861
C63	1.029169	-5.948512	7.337575
C64	0.987212	-4.811794	6.297315
C65	2.455420	-6.453972	7.601489
C66	1.722986	-3.531793	6.707231
C67	-8.526768	-2.315263	-3.336055
C68	-7.877585	-3.684317	-3.085146
C69	-8.806713	-4.571803	-2.232818
C70	-6.487509	-3.514439	-2.453476
C71	-8.328614	-6.015521	-2.044499
C72	-6.847003	-3.785902	4.208587
C73	-7.419600	-2.981221	3.064881
C74	-8.794130	-2.995550	2.791717
C75	-6.592464	-2.180302	2.265094
C76	-9.331574	-2.225682	1.759437
C77	-7.125660	-1.406427	1.232577
C78	-8.498446	-1.423613	0.977403
C79	3.695720	-7.717708	2.929977
C80	3.126682	-6.507218	2.231509
C81	3.363463	-5.208974	2.704021
C82	2.303518	-6.649030	1.106199
C83	2.791374	-4.089356	2.092882
C84	1.724840	-5.548627	0.482124
C85	1.960266	-4.260343	0.978462
O86	1.349230	-3.215785	0.344228
C87	-4.562157	7.773306	2.024056
C88	-3.226071	8.513254	1.963801
C89	-2.167876	7.625639	1.314135
O90	-2.207500	6.391777	1.667795
O91	-1.368122	8.110014	0.486260
C92	-4.507014	5.001762	4.666341
C93	-3.042406	4.831388	5.142026
O94	-2.800270	4.464733	6.295772
C95	-5.489829	4.158380	5.485071
C96	-5.387408	2.633047	5.291349
C97	-6.298797	1.912161	6.295414
C98	-5.718055	2.194079	3.857099
N99	-2.060153	5.133877	4.250095
C100	-0.667326	5.248964	4.711776
C101	0.347263	5.583326	3.617108
C102	1.603070	6.196012	4.252366
C103	0.694763	4.346221	2.782996
C104	-4.169859	5.086081	-1.454848
C105	-2.882342	4.357811	-1.293720
N106	-2.014544	4.669023	-0.268764
C107	-2.281986	3.353159	-2.013456
C108	-0.938106	3.894362	-0.385083
N109	-1.062715	3.082812	-1.424394
C110	-3.935696	6.248643	-5.770553
C111	-4.779596	5.201951	-6.523095
C112	-4.644964	3.813900	-5.925397
C113	-3.442551	3.099384	-6.038657
C114	-5.694406	3.230841	-5.203395
C115	-3.284891	1.851159	-5.435162
C116	-5.547394	1.977719	-4.603517
C117	-4.340138	1.287118	-4.712450
H118	3.866594	0.168727	-4.858044
H119	2.648560	0.957781	-5.877898
H120	2.065711	-3.512091	-2.856720
H121	0.797108	-2.430079	-2.301205
H122	1.462604	-5.837664	-3.666231
H123	-1.418577	-3.274253	-1.778600
H124	-0.015172	-7.786228	-3.285877
H125	-2.900498	-5.215922	-1.395371
H126	-2.209922	-7.484930	-2.150910
H127	1.173286	-3.422934	-5.178868
H128	-2.410125	-5.202163	-7.522810
H129	-2.992252	-5.091922	-5.854412
H130	-2.823632	-2.800837	-7.884664
H131	-4.250977	-3.285194	-6.957301
H132	-2.622330	-1.256737	-6.034324
H133	-3.312320	-2.411340	-4.889645
H134	-0.648443	-4.859661	-5.456346
H135	2.780055	2.692791	-4.248395
H136	1.736514	3.469475	-3.079014
H137	3.357810	3.077529	-1.270655
H138	6.258966	-1.648491	-3.645839
H139	4.628776	-1.460406	-3.052607
H140	3.852548	-2.981457	-0.978772
H141	8.746757	-2.148252	-2.425055
H142	10.530325	-3.441612	-1.290626
H143	7.618622	-5.491100	1.146145
H144	9.978198	-5.086315	0.475252
H145	6.267643	-0.052834	-1.157794
H146	9.407738	0.331148	-0.054093
H147	8.985165	1.273951	1.360595
H148	11.827463	0.573158	0.489275
H149	12.514396	1.364630	2.762882
H150	11.800278	2.681893	1.825954
H151	10.853660	1.881648	3.087911
H152	11.802940	-1.041218	2.397174
H153	10.531560	-1.435518	1.225250
H154	10.118498	-0.623219	2.739648
H155	10.105879	3.300254	0.376831
H156	-0.193289	6.914679	0.186987
H157	-4.809148	-6.622423	4.519704
H158	-4.495767	-5.665247	5.971380
H159	-2.617700	-6.695432	2.836200
H160	-3.444640	-3.538902	5.625273
H161	-1.177229	-5.174766	1.535376
H162	-2.012813	-2.002030	4.301668
H163	-0.313546	-3.013103	1.376833
H164	0.635380	-5.546817	8.284379
H165	2.457060	-7.262936	8.340933
H166	2.904668	-6.846564	6.680255
H167	3.109551	-5.661992	7.978554
H168	1.397796	-5.181417	5.347146
H169	-0.061891	-4.565218	6.091989
H170	1.339405	-3.139394	7.656685
H171	2.799483	-3.692862	6.827640
H172	1.592490	-2.750801	5.951734
H173	-7.748437	-4.179430	-4.060535
H174	-5.964336	-4.469908	-2.348023
H175	-5.856331	-2.861475	-3.066904
H176	-6.564550	-3.064133	-1.456627
H177	-8.943979	-4.098784	-1.250594
H178	-9.798883	-4.586793	-2.704614
H179	-8.163899	-6.507954	-3.010500
H180	-7.391079	-6.065728	-1.482302
H181	-9.069675	-6.605308	-1.494722
H182	-8.691372	-1.785532	-2.389944
H183	-5.795292	-4.027646	4.037985
H184	-7.397656	-4.720490	4.356140
H185	-9.450658	-3.616639	3.396972
H186	-5.521624	-2.163270	2.452017
H187	-10.400918	-2.250440	1.567519
H188	-6.469063	-0.785669	0.629532
H189	-8.914774	-0.814291	0.180345
H190	3.009083	-8.097737	3.697623
H191	4.641622	-7.488020	3.430949
H192	3.999394	-5.063778	3.574256
H193	2.110423	-7.642704	0.708726
H194	2.975008	-3.089986	2.475787
H195	1.095822	-5.667876	-0.392985
H196	1.617437	-2.334368	0.734285
H197	-3.296830	9.452616	1.407936
H198	-2.888389	8.760587	2.979261
H199	-4.918693	7.528160	1.016891
H200	-5.310130	4.383996	6.541291
H201	-6.515922	4.478795	5.252498
H202	-4.351294	2.348406	5.516013
H203	-5.675841	1.102963	3.760657
H204	-5.024429	2.616095	3.123330
H205	-6.732104	2.506697	3.575480
H206	-6.209895	0.823460	6.205999
H207	-6.048526	2.187026	7.325789
H208	-7.352130	2.171627	6.126541
H209	-4.756796	6.063426	4.790484
H210	-0.090360	6.328293	2.944955
H211	1.295576	4.624784	1.913299
H212	1.258442	3.619226	3.383298
H213	-0.216406	3.853621	2.431276
H214	2.301599	6.533416	3.483753
H215	2.111308	5.471799	4.903246
H216	1.350790	7.071268	4.861433
H217	-0.393540	4.312608	5.214431
H218	-4.735683	4.681089	-2.298192
H219	-4.794705	5.003985	-0.557618
H220	-2.630560	2.825166	-2.886438
H221	-0.078487	3.932801	0.254803
H222	-4.469750	5.181747	-7.576179
H223	-5.833440	5.502989	-6.514338
H224	-2.613633	3.532171	-6.593666
H225	-6.635610	3.767399	-5.106388
H226	-2.336637	1.325149	-5.501775
H227	-6.373362	1.547495	-4.043592
H228	-4.209620	0.323840	-4.228616
H229	-2.877120	5.972943	-5.765604
H230	4.977352	-4.575012	0.583114
H231	3.971944	0.532369	-2.451091
H232	2.081888	-0.978110	-3.800217
H233	-2.109990	5.407034	0.490017
H234	-2.287541	5.566585	3.350401
H235	-4.005530	6.155117	-1.637258
H236	-4.257259	6.334313	-4.728140
H237	-4.025964	7.235473	-6.237269
H238	0.109188	-7.908615	7.656444
H239	-0.911261	-6.773519	6.754781
H240	0.466857	-7.544667	5.961583
H241	-3.434805	-7.013647	5.552516
H242	3.879348	-8.537113	2.227663
H243	8.929021	2.632550	-0.759650
H244	10.657439	2.337850	-1.000536
H245	-5.338311	8.379551	2.507356
H246	-0.629757	6.019903	5.495233
H247	-6.903725	-3.224269	5.149868
H248	-7.892869	-1.681229	-3.965651
H249	-9.497929	-2.417412	-3.833264
H250	3.957191	0.043326	-6.641703
H251	-0.372099	-3.987585	-6.982768
H252	6.913670	0.392265	-2.724431
C253	0.722481	0.501108	-0.377293
C254	1.817140	0.353675	0.692641
O255	1.697162	-0.856404	1.479363
H256	0.861614	-0.345118	-1.075947
H257	1.823136	1.226059	1.356389
H258	2.789485	0.298387	0.200376
C259	-0.684994	0.359732	0.212199
C260	-1.035105	0.928572	1.445089
C261	-1.679868	-0.307433	-0.515812
C262	-2.335791	0.827562	1.941418
H263	-0.294641	1.475572	2.022000
C264	-2.982749	-0.407583	-0.026332
H265	-1.435235	-0.719289	-1.492878
C266	-3.314269	0.157601	1.206573
H267	-2.585657	1.285262	2.894430
H268	-3.741236	-0.922502	-0.610932
H269	-4.328814	0.091890	1.588763
H270	-4.458291	6.840170	2.572615
H271	-4.581175	4.796069	3.593015
H272	3.991849	4.083867	-2.567138
H273	5.835598	5.010527	0.228756
H274	6.553792	5.010493	3.209979
H275	7.298168	3.990496	1.969245
H276	7.510092	5.747006	1.913314
H277	4.308052	3.840573	2.615014
H278	3.644690	3.991217	0.986705
H279	5.041823	2.939712	1.274125
H280	5.606227	7.220862	1.519978
H281	4.381703	6.446396	2.513268
H282	3.928324	6.297280	-0.386810
H283	1.348253	8.840404	-0.099103
H284	2.686868	8.568508	-1.232157
H285	0.659314	7.280791	-1.898336
H286	1.968313	6.171008	-1.494148
H287	0.835892	-0.841061	1.930546
O288	0.610745	1.363207	-3.709053
H289	0.225204	0.455410	-3.762938
H290	-0.186631	2.287560	-1.436391