290

C1	-3.942180	7.236679	0.212174
C2	-2.710366	-0.324148	6.153674
C3	-1.494252	-1.267802	6.193337
C4	-4.761103	6.534526	-0.882620
O5	-5.004977	7.092690	-1.951555
O6	-0.958774	-1.596724	7.250755
N7	-1.046982	-1.703055	4.974326
N8	-5.315529	5.336773	-0.560029
C9	0.190356	-2.451054	4.835976
C10	1.416427	-1.525921	4.984120
O11	1.436156	-0.417992	4.416388
C12	0.225610	-3.189014	3.475770
C13	1.334664	-4.214961	3.387843
C14	1.139914	-5.511806	3.885389
C15	2.586770	-3.891203	2.849719
C16	2.169120	-6.455066	3.857045
C17	3.619202	-4.829456	2.818853
C18	3.414899	-6.114784	3.325420
N19	2.476810	-1.953511	5.706579
C20	2.623259	-3.219727	6.470447
C21	4.101307	-3.214136	6.880357
C22	4.425684	-1.720322	7.030982
C23	3.646908	-1.073496	5.879629
C24	-4.093828	2.136106	2.531754
C25	-5.128048	1.003980	2.722376
O26	-6.320306	1.271403	2.899277
C27	-2.765342	2.124335	3.318096
C28	-1.724948	1.017066	3.130532
O29	-1.204765	1.512541	1.107083
O30	-1.981683	-0.191073	2.939801
N31	-4.668428	-0.271248	2.619808
C32	-5.530327	-1.424887	2.848466
C33	-4.743456	-2.721504	3.140315
C34	-4.481078	-3.587485	1.941756
C35	-3.282438	-3.828688	1.315506
C36	-5.465147	-4.372758	1.235130
C37	-4.784761	-5.062593	0.191800
C38	-6.848784	-4.572701	1.387692
N39	-3.456664	-4.714424	0.269944
C40	-5.447459	-5.924890	-0.689087
C41	-7.510443	-5.429352	0.515263
C42	-6.815707	-6.097200	-0.514967
C43	-9.992597	-0.248026	1.010104
C44	-9.479451	-1.115582	-0.144543
C45	-10.569377	-1.864016	-0.937051
C46	-11.544071	-0.908035	-1.641130
C47	-9.934787	-2.830278	-1.948121
C48	-6.311866	4.732224	-1.428154
C49	-7.070928	3.591693	-0.733398
C50	-8.369109	3.277460	-1.489607
C51	-6.203855	2.333169	-0.596380
C52	-3.012645	6.393458	1.082238
O53	-1.997059	5.780212	0.334349
C54	5.328220	-5.431506	-4.844880
C55	4.327034	-4.380780	-4.410975
C56	3.741952	-4.413658	-3.137418
C57	3.945125	-3.336379	-5.265437
C58	2.812111	-3.457492	-2.728167
C59	1.484550	-7.546012	-6.209734
C60	3.017347	-2.371893	-4.876785
C61	2.435586	-2.428772	-3.603747
C62	0.326535	-6.616172	-6.602126
C63	0.432740	-5.276585	-5.847821
O64	1.526232	-1.467129	-3.290666
C65	-1.023137	-7.313654	-6.376834
C66	-0.557418	-4.195616	-6.294235
C67	9.154036	0.201947	2.945133
C68	7.986833	-0.754302	2.658327
C69	8.503620	-2.066296	2.034803
C70	6.929317	-0.066620	1.781975
C71	7.444016	-3.159917	1.858757
C72	7.478454	-2.314720	-4.318719
C73	8.263593	-1.403135	-3.404577
C74	9.454330	-1.826444	-2.801334
C75	7.805967	-0.106375	-3.126565
C76	10.169303	-0.984558	-1.946090
C77	8.514558	0.738570	-2.273397
C78	9.701772	0.302583	-1.678766
C79	-1.563074	-8.700328	-1.925808
C80	-0.947971	-7.420276	-1.421521
C81	-1.190081	-6.191684	-2.044700
C82	-0.125163	-7.423808	-0.285504
C83	-0.652751	-4.998735	-1.546134
C84	2.364590	8.411919	-2.774164
C85	0.417456	-6.252893	0.226746
C86	0.992607	8.823143	-2.239158
C87	0.143869	-5.025690	-0.393381
C88	0.286825	7.639358	-1.579672
O89	0.684481	-3.909638	0.160315
O90	0.569868	6.489858	-2.080544
O91	-0.462018	7.837180	-0.599576
C92	2.885362	5.497146	-5.202571
C93	1.488515	4.937043	-5.549035
O94	1.295968	4.366444	-6.626879
C95	4.008408	4.616835	-5.765997
C96	4.085165	3.191801	-5.183798
C97	5.148960	2.371058	-5.927250
C98	4.352263	3.177979	-3.671576
N99	0.502552	5.117475	-4.632846
C100	-0.880091	4.742489	-4.957162
C101	-1.908544	5.211652	-3.922216
C102	-3.291511	5.368796	-4.570193
C103	-1.957041	4.241129	-2.737803
C104	2.900183	6.033882	0.904858
C105	1.822717	5.004529	0.925257
C106	1.457509	4.065695	1.857765
N107	0.934528	4.879784	-0.125792
C108	0.061291	3.925783	0.177155
N109	0.347777	3.409005	1.363338
C110	3.755905	6.752272	5.887858
C111	3.847197	5.294000	5.475553
C112	2.830267	4.391059	5.823583
C113	4.897482	4.828037	4.674106
C114	2.844828	3.074426	5.362075
C115	4.923582	3.507901	4.216404
C116	3.891911	2.629642	4.549591
O117	0.257698	-1.394068	-0.629301
H118	-3.291857	-0.410404	5.235842
H119	-2.343991	0.703553	6.242723
H120	-0.743921	-3.682680	3.355999
O121	-0.571026	1.383127	3.720031
H122	0.317883	-2.453547	2.670910
H123	0.170087	-5.784590	4.294693
H124	2.748708	-2.897342	2.442729
H125	1.995788	-7.455044	4.245068
H126	4.578947	-4.558940	2.387886
H127	4.216506	-6.847324	3.297534
H128	0.204637	-3.189162	5.642237
H129	4.275130	-3.792368	7.791875
H130	4.706681	-3.654770	6.080460
H131	4.051855	-1.347834	7.991357
H132	5.495858	-1.502726	6.980995
H133	3.321336	-0.052521	6.087172
H134	4.236104	-1.050556	4.953450
H135	2.365652	-4.083082	5.857256
H136	-2.975373	2.114307	4.396625
H137	-2.252060	3.069136	3.123070
H138	-3.833449	2.167181	1.467027
H139	-5.328222	-3.303381	3.864692
H140	-3.802158	-2.478350	3.645356
H141	-2.299444	-3.439527	1.539074
H142	-7.395754	-4.066632	2.178578
H143	-8.578539	-5.592232	0.628330
H144	-4.909951	-6.440855	-1.479563
H145	-7.359378	-6.759319	-1.182909
H146	-6.191800	-1.580948	1.986352
H147	-7.343319	3.938284	0.274393
H148	-8.906119	2.450177	-1.013499
H149	-9.038729	4.144042	-1.519234
H150	-8.156388	2.983505	-2.524835
H151	-6.678046	1.594914	0.056274
H152	-5.220172	2.558692	-0.175779
H153	-6.030822	1.877337	-1.577893
H154	-5.842329	4.358239	-2.348979
H155	0.417485	-6.400983	-7.678477
H156	-1.413415	6.495503	-0.031064
H157	-1.166136	-7.538216	-5.312175
H158	6.221255	-5.429932	-4.208462
H159	5.656965	-5.261642	-5.874399
H160	-1.865225	-6.696015	-6.703555
H161	4.010184	-5.208201	-2.444570
H162	-1.075711	-8.261355	-6.924839
H163	4.380095	-3.276082	-6.260619
H164	0.311134	-5.462597	-4.771497
H165	2.377460	-3.516218	-1.733715
H166	1.451041	-4.887695	-5.965238
H167	2.726208	-1.569549	-5.546959
H168	-0.460626	-3.987560	-7.366732
H169	1.127882	-1.600507	-2.411327
H170	-1.597921	-4.481620	-6.106869
H171	-0.373841	-3.259363	-5.758098
H172	1.446530	-7.783521	-5.139603
H173	7.516837	-1.007292	3.622062
H174	6.045778	-0.694553	1.633589
H175	6.591183	0.870574	2.238061
H176	7.337962	0.171411	0.792746
H177	8.958313	-1.840877	1.060076
H178	9.312839	-2.455721	2.667727
H179	6.951324	-3.391096	2.811208
H180	6.669496	-2.864994	1.144203
H181	7.895167	-4.085497	1.485964
H182	9.659447	0.487718	2.014600
H183	6.543787	-2.642553	-3.851485
H184	8.053423	-3.207622	-4.581103
H185	9.827904	-2.826889	-3.006745
H186	6.885807	0.244586	-3.586894
H187	11.094634	-1.333188	-1.495198
H188	8.142198	1.740195	-2.077594
H189	10.259025	0.963155	-1.020485
H190	1.058962	9.635208	-1.508478
H191	0.360122	9.189535	-3.059005
H192	-0.833577	-9.517498	-1.943624
H193	2.980792	7.970280	-1.984094
H194	-1.956259	-8.584527	-2.940296
H195	3.853145	4.538727	-6.847119
H196	4.972139	5.123338	-5.609936
H197	-1.807945	-6.154896	-2.938599
H198	0.088826	-8.366617	0.213056
H199	3.112609	2.716664	-5.365104
H200	-0.844836	-4.056637	-2.052895
H201	5.172606	1.334904	-5.569735
H202	1.047648	-6.263196	1.108667
H203	4.951367	2.347881	-7.004503
H204	0.347598	-3.084070	-0.258027
H205	6.150637	2.796386	-5.781175
H206	4.417121	2.150411	-3.295900
H207	3.558666	3.678177	-3.108634
H208	5.300067	3.679854	-3.434689
H209	2.953032	6.495717	-5.653774
H210	-1.594989	6.194572	-3.552377
H211	-4.021274	5.735443	-3.842529
H212	-3.649133	4.409616	-4.967914
H213	-3.262208	6.082474	-5.401915
H214	-2.464885	4.673752	-1.872978
H215	-2.465750	3.312009	-3.020223
H216	-0.940850	3.975394	-2.435384
H217	-0.938888	3.651705	-5.078911
H218	3.528191	5.943997	1.794864
H219	3.542028	5.924949	0.023299
H220	1.893351	3.824754	2.813773
H221	-0.774711	3.612763	-0.419556
H222	3.575253	6.825070	6.968154
H223	4.711334	7.252556	5.693859
H224	5.698293	5.509956	4.396792
H225	2.005725	4.730333	6.446295
H226	5.743629	3.172535	3.586987
H227	2.032074	2.396747	5.607257
H228	3.881607	1.612288	4.171007
H229	-10.594530	-0.839317	1.711011
H230	-10.615804	0.580171	0.656978
H231	-8.772816	-1.855367	0.253560
H232	-8.900118	-0.492278	-0.840919
H233	-11.148404	-2.463329	-0.216623
H234	-12.304914	-1.463072	-2.201841
H235	-12.065487	-0.256386	-0.933369
H236	-11.010673	-0.266164	-2.353612
H237	-10.698867	-3.399458	-2.490370
H238	-9.266236	-3.543613	-1.454725
H239	-9.342102	-2.282659	-2.691311
H240	0.044238	0.615781	3.817345
H241	1.015889	-1.097427	-0.099927
H242	-7.002614	5.524892	-1.737572
H243	2.908884	9.274946	-3.177346
H244	9.900519	-0.260633	3.600752
H245	-3.336080	-0.535494	7.022582
H246	-6.188615	-1.184001	3.691477
H247	-4.628733	3.055611	2.778207
H248	1.445671	-8.492016	-6.762217
H249	7.203207	-1.805082	-5.248109
H250	-1.113064	5.159838	-5.945894
H251	4.900587	-6.439991	-4.795854
H252	-2.394835	-9.027089	-1.288689
H253	0.806133	5.529945	-0.974110
H254	2.454456	-7.077733	-6.409224
H255	0.659572	5.665869	-3.785143
H256	-1.406418	-1.230477	4.137226
H257	-3.657720	-0.405544	2.551644
H258	-9.157712	0.183837	1.572188
H259	-2.721274	-5.032091	-0.346406
C260	-0.305152	0.616606	0.586353
C261	-0.900631	-0.601210	-0.158067
H262	0.353779	0.169617	1.374911
H263	0.389195	1.102813	-0.133155
C264	-3.475231	0.168038	-3.532272
C265	-2.106238	0.428555	-3.629152
C266	-4.001937	-0.325866	-2.338369
C267	-1.269056	0.196382	-2.538661
H268	-1.687101	0.811457	-4.554941
C269	-3.161930	-0.566121	-1.249794
H270	-5.063992	-0.536647	-2.254039
C271	-1.788669	-0.309970	-1.339458
H272	-0.206087	0.392284	-2.632033
H273	-3.575102	-0.957681	-0.324405
H274	-4.125282	0.346781	-4.384196
H275	-1.447958	-1.212794	0.564260
H276	2.475803	7.044284	0.881450
H277	2.263653	7.672918	-3.566310
H278	2.983162	5.636898	-4.121440
H279	8.806258	1.121316	3.428805
H280	1.960220	-3.196219	7.344474
C281	2.623914	7.474654	5.133392
H282	1.656314	7.003666	5.329222
H283	2.554928	8.525541	5.435130
H284	2.791871	7.442093	4.052769
H285	-5.046315	4.865649	0.289553
H286	-3.351556	8.003394	-0.296495
H287	-4.667438	7.761955	0.851900
H288	-2.603837	7.043494	1.874555
H289	-3.565105	5.597866	1.604471
H290	-0.295404	2.528318	1.575980