177 

C 5.842599 -2.581745 -5.165687 
C 5.074127 -1.488811 -4.758327 
C 4.060294 -1.668617 -3.815018 
C 3.819946 -2.940981 -3.290216 
C 4.578660 -4.049488 -3.691109 
C 5.594854 -3.848369 -4.636367 
C 4.323882 -5.425331 -3.115521 
O 3.819446 0.628383 -0.409609 
C 2.872032 0.545143 0.374165 
C 3.181539 0.344333 1.867638 
O 3.984227 1.171661 2.391462 
C 1.465567 0.703786 -0.137889 
C 0.326676 0.053278 0.590814 
C -0.437079 -0.893772 0.039605 
C -1.735276 -1.381554 0.607289 
O -2.618401 -1.636859 -0.265255 
O -1.899829 -1.508656 1.862837 
O 2.636174 -0.637138 2.425446 
O 3.062145 1.610576 -3.094948 
O 1.099805 3.886066 1.396313 
C 0.279466 4.462322 2.110275 
N -0.561562 5.427855 1.645328 
C 0.185526 4.197258 3.613400 
H -0.789256 4.497595 4.013043 
C 0.445324 2.738514 3.972228 
O -0.672969 1.969419 3.607442 
O -0.020247 -0.717807 3.742272 
N 5.928191 2.809636 1.234521 
C 6.668784 2.623326 0.135238 
N 6.417056 1.607906 -0.682858 
C 7.224381 1.225443 -1.848514 
C 6.947848 2.053867 -3.114786 
C 7.847258 1.616790 -4.279930 
N 7.686061 3.479579 -0.113289 
N -4.849547 -2.932762 0.328761 
C -5.155858 -3.204782 1.584411 
N -6.254462 -3.939551 1.895259 
C -7.150161 -4.515289 0.885767 
C -8.405968 -5.098626 1.538786 
C -9.371901 -5.709558 0.514663 
N -4.381633 -2.723185 2.572498 
N -2.237795 -4.470924 -2.425615 
C -3.407049 -3.805554 -2.592948 
O -4.482213 -4.231179 -2.149422 
C -2.129730 -5.652956 -1.591949 
C -1.597751 -5.382298 -0.174578 
C -0.133850 -4.910301 -0.072881 
C 0.860227 -5.959560 -0.593743 
C -3.295148 -2.494474 -3.341088 
C -4.544713 -2.173511 -4.169305 
C -4.477341 -0.798717 -4.837671 
C 0.199441 -4.525207 1.376777 
N 3.206215 -1.098244 5.099331 
C 3.139450 0.044754 5.765639 
N 3.459443 1.195475 5.152302 
C 3.160978 -2.434703 5.694283 
C 4.116222 -3.387827 4.967761 
C 4.165490 -4.767133 5.631071 
N 2.828668 0.068147 7.083740 
H -6.759570 7.301020 -2.055097 
H -7.990325 8.086714 -1.083719 
H -5.013881 8.876883 -1.140440 
H 0.062095 0.470003 1.555071 
H 3.329931 1.327884 -2.207017 
H 0.796349 -0.792380 3.221062 
C -0.567821 5.898955 0.269735 
N -1.251158 2.457469 -0.390096 
C -2.509976 2.718108 0.322604 
C -3.585251 2.101496 -0.586528 
C -3.027027 2.375922 -1.991820 
C -1.520896 2.102587 -1.782014 
C -0.540616 2.778257 -2.740739 
N -0.944651 2.882564 -4.028957 
C -0.093539 3.415366 -5.081115 
O 0.574046 3.163894 -2.361642 
H -6.362473 9.777376 -1.832405 
H -7.587794 5.086912 -0.947245 
C -5.243562 6.255734 0.044225 
C -6.679534 6.803304 0.048203 
C -6.928559 7.808044 -1.094010 
C -6.083312 9.084665 -1.032165 
C -7.694621 5.652637 -0.013381 
H -0.536382 3.168080 -0.293688 
H -3.137149 -6.069212 -1.529696 
H 4.438611 -6.204066 -3.875945 
H 7.678263 0.565108 -4.533100 
H 4.843785 -5.432450 5.090453 
H -8.894860 -6.516359 -0.051267 
H -2.403619 -2.499215 -3.982009 
H -4.683463 -2.948387 -4.933321 
H 0.234054 5.390083 -0.266053 
H 0.437530 2.621075 -5.618559 
H 0.643460 4.075070 -4.622960 
H -6.833008 7.337161 0.998498 
H -5.094094 5.541796 0.861919 
H -7.555684 4.951294 0.816641 
H -8.723393 6.025271 0.031783 
H -1.393593 -4.033766 -2.762701 
H -1.351095 1.017274 -1.919950 
H -3.480106 1.741727 -2.761439 
H -3.190772 3.424743 -2.271159 
H -3.645134 1.020588 -0.420336 
H -4.577498 2.531501 -0.424171 
H -2.488424 2.269738 1.321601 
H -2.705862 3.795333 0.451375 
H 4.520303 -4.700408 6.665293 
H 3.178200 -5.241107 5.644794 
H 3.801328 -3.481246 3.921574 
H 5.116185 -2.938893 4.958135 
H 3.457112 -2.357095 6.745630 
H 2.133598 -2.819920 5.657538 
H 3.131366 -1.012964 4.065716 
H 2.245194 -0.654672 7.473274 
H 2.888297 0.935498 7.592640 
H 3.737572 1.174040 4.153096 
H 3.020215 2.043127 5.479582 
H 7.638434 2.211904 -5.172660 
H 8.909520 1.737568 -4.038759 
H 5.888186 1.951600 -3.376934 
H 7.105856 3.120978 -2.906672 
H 8.285657 1.269178 -1.571215 
H 6.997811 0.174257 -2.044477 
H 5.527514 1.120855 -0.528351 
H 8.055087 4.053880 0.626759 
H 8.224321 3.405101 -0.959856 
H 5.176640 2.157648 1.523587 
H 5.940704 3.714650 1.678252 
H 5.030276 -5.657202 -2.308437 
H 3.315651 -5.505158 -2.699344 
H 6.190690 -4.695823 -4.967306 
H 6.626181 -2.452944 -5.907585 
H 5.245327 -0.505352 -5.186579 
H 3.456936 -0.817439 -3.510509 
H 3.024164 -3.079024 -2.561306 
H -0.394971 6.979770 0.228670 
H -0.710949 -1.061089 3.122433 
H -1.520980 5.678225 -0.222189 
H 2.332225 2.234200 -2.937087 
H -1.239517 5.813656 2.284884 
H -0.228183 -1.246258 -0.968964 
H -6.225210 9.607519 -0.079189 
H -4.500623 7.051476 0.157829 
H -5.032063 5.732557 -0.897284 
H 1.487042 0.433911 -1.197930 
H 1.298690 1.793912 -0.108508 
H -10.250657 -6.125520 1.014323 
H -9.719047 -4.957551 -0.201293 
H -8.109097 -5.869237 2.263711 
H -8.911076 -4.308308 2.106894 
H -7.426646 -3.718319 0.187174 
H -6.632947 -5.292367 0.304747 
H -6.265699 -4.365271 2.811106 
H -5.144951 -3.523882 -0.444993 
H -3.990791 -2.346438 0.138565 
H -4.757579 -2.638467 3.503078 
H -3.497439 -2.226347 2.339436 
H -3.126119 -1.728249 -2.572773 
H -5.419727 -2.234859 -3.514951 
H -4.393347 -0.001296 -4.089740 
H -5.375506 -0.602198 -5.431423 
H -3.613648 -0.719960 -5.508496 
H -1.504841 -6.390402 -2.108164 
H -1.710118 -6.308707 0.407199 
H -2.246397 -4.632659 0.292428 
H -0.028336 -4.001941 -0.684914 
H 1.226827 -4.153302 1.458044 
H 0.106923 -5.396357 2.037966 
H -0.468583 -3.742647 1.748063 
H 1.890870 -5.601884 -0.496167 
H 0.698174 -6.207755 -1.648146 
H 0.779643 -6.891311 -0.020435 
H 0.943570 4.829999 4.095001 
H -0.458881 1.013003 3.727348 
H 0.638436 2.681753 5.061842 
H 1.360329 2.421146 3.449850 
H -0.696885 3.983783 -5.793060 
H -1.852343 2.519262 -4.277235
