177

C 5.346526 -1.916444 -5.886116 
C 4.735916 -0.846524 -5.229183 
C 4.091074 -1.059481 -4.006680 
C 4.062514 -2.343513 -3.454012 
C 4.667183 -3.429488 -4.104305 
C 5.309050 -3.193926 -5.327602 
C 4.644993 -4.815796 -3.499081 
O 3.908912 1.058462 -0.036729 
C 2.972293 0.518593 0.616813 
C 3.177973 0.472836 2.153988 
O 3.942740 1.368151 2.611582 
C 1.807268 0.042664 -0.032655 
C 0.642956 -0.360806 0.583749 
C -0.591480 -0.548958 -0.097020 
C -1.775505 -1.232339 0.523154 
O -2.774563 -1.375179 -0.248715 
O -1.762608 -1.583373 1.749464 
O 2.615917 -0.438669 2.829376 
O 2.978576 1.975667 -2.640289 
O 0.371210 3.661986 1.097457 
C -0.123926 4.374216 1.970913 
N -0.903702 5.455380 1.686144 
C 0.138061 4.135462 3.455377 
H -0.676741 4.540919 4.066257 
C 0.334156 2.659866 3.780070 
O -0.896520 1.990241 3.635660 
O -0.210270 -0.679468 3.873019 
N 6.153589 2.399890 0.987004 
C 6.862070 2.251232 -0.133833 
N 6.365056 1.558959 -1.155137 
C 6.954385 1.459581 -2.493541 
C 6.668729 2.676490 -3.386963 
C 7.365944 2.559622 -4.747550 
N 8.110453 2.784112 -0.202087 
N -4.640660 -3.166125 0.430779 
C -4.763817 -3.559778 1.689544 
N -5.680472 -4.495721 2.040140 
C -6.606998 -5.125444 1.095456 
C -7.724357 -5.860562 1.840196 
C -8.719830 -6.531997 0.887247 
N -3.997857 -2.996044 2.634396 
N -1.936028 -4.550569 -2.439721 
C -3.172769 -4.001651 -2.525623 
O -4.170094 -4.530260 -2.016343 
C -1.654491 -5.715583 -1.620572 
C -1.108516 -5.381187 -0.222533 
C 0.281339 -4.715887 -0.172610 
C 1.388841 -5.629432 -0.719511 
C -3.231174 -2.674231 -3.251551 
C -4.556971 -2.443867 -3.985355 
C -4.659389 -1.041427 -4.589774 
C 0.605336 -4.270958 1.261538 
N 3.633908 -0.669044 5.336939 
C 3.774538 0.469856 5.998564 
N 3.825193 1.621591 5.319008 
C 3.930537 -2.004258 5.852760 
C 4.595112 -2.854858 4.764152 
C 4.923815 -4.266379 5.251728 
N 3.927152 0.478777 7.347557 
H -6.220344 8.435346 -1.181468 
H -7.689407 6.482807 -1.819244 
H 1.821596 0.156935 -1.115074 
H 0.623044 -0.404693 1.662647 
H 3.223306 1.789647 -1.716321 
H 0.720446 -0.743118 3.602419 
C -1.165429 5.915985 0.332966 
N -1.488028 1.982321 -0.439072 
C -2.603293 2.304975 0.496227 
C -3.864462 2.000336 -0.317591 
C -3.464106 2.452954 -1.731767 
C -1.998839 1.968906 -1.827352 
C -1.065429 2.749770 -2.757944 
N -1.516627 2.891048 -4.027596 
C -0.749127 3.547233 -5.074708 
O 0.019031 3.186523 -2.366935 
H -8.999387 7.146509 -0.861013 
H -8.078923 4.302439 -0.427862 
C -5.925448 5.952582 0.276509 
C -7.432719 6.249670 0.316235 
C -7.906209 7.058578 -0.907637 
C -7.304396 8.462514 -1.031099 
C -8.235189 4.947073 0.446203 
H -0.684359 2.611876 -0.321065 
H -2.599307 -6.254225 -1.524371 
H 4.682130 -5.589586 -4.271358 
H 7.039949 1.661194 -5.281972 
H 5.391140 -4.852573 4.455817 
H -8.223070 -7.266024 0.244299 
H -2.387590 -2.585129 -3.948787 
H -4.674366 -3.195645 -4.775478 
H -0.599630 5.283517 -0.352332 
H -0.375727 2.825276 -5.809011 
H 0.099772 4.042964 -4.604702 
H -7.630436 6.857678 1.211988 
H -5.615696 5.380360 1.158297 
H -7.937147 4.379487 1.334591 
H -9.309308 5.146330 0.521581 
H -1.163450 -4.039836 -2.839667 
H -1.996809 0.923909 -2.172113 
H -4.098830 2.024923 -2.513678 
H -3.511394 3.545260 -1.817236 
H -4.058469 0.923268 -0.309317 
H -4.745367 2.522812 0.063774 
H -2.492860 1.719099 1.411567 
H -2.559243 3.362385 0.774408 
H 5.617534 -4.247367 6.099596 
H 4.022093 -4.801157 5.569514 
H 3.929521 -2.896223 3.894122 
H 5.508394 -2.345718 4.434587 
H 4.601348 -1.913201 6.714579 
H 3.008109 -2.491277 6.198022 
H 3.277873 -0.589182 4.349114 
H 3.554621 -0.275191 7.901459 
H 4.135291 1.342405 7.821679 
H 3.865593 1.582166 4.269559 
H 3.566729 2.479865 5.779963 
H 7.136410 3.423404 -5.377238 
H 8.455498 2.505757 -4.640279 
H 5.582411 2.760692 -3.506094 
H 6.998710 3.592103 -2.877656 
H 8.032828 1.273961 -2.402312 
H 6.531615 0.559206 -2.947151 
H 5.429855 1.175542 -0.997544 
H 8.361561 3.506191 0.454126 
H 8.580829 2.818832 -1.091479 
H 5.223276 1.962100 1.085104 
H 6.601946 2.741241 1.821335 
H 5.506299 -4.975998 -2.838288 
H 3.743744 -4.977455 -2.899979 
H 5.778343 -4.023137 -5.850924 
H 5.841977 -1.760598 -6.840243 
H 4.741510 0.145345 -5.673025 
H 3.601845 -0.227657 -3.503314 
H 3.553140 -2.505154 -2.505942 
H -0.842797 6.954770 0.205381 
H -0.718785 -1.082989 3.131571 
H -2.231635 5.851932 0.085655 
H 2.125612 2.434500 -2.580439 
H -1.287567 5.981247 2.456779 
H -0.515662 -0.751870 -1.168832 
H -7.737007 8.999895 -1.880895 
H -1.015370 0.717249 -0.178421 
H -7.499797 9.056811 -0.131081 
H -5.326619 6.868235 0.249043 
H -5.671923 5.360293 -0.612703 
H -9.500737 -7.052781 1.447579 
H -9.207560 -5.795781 0.239892 
H -7.279642 -6.620542 2.497750 
H -8.246479 -5.147843 2.489669 
H -7.030944 -4.335648 0.466307 
H -6.074159 -5.820000 0.430550 
H -5.537227 -4.962895 2.923846 
H -4.854626 -3.791245 -0.343940 
H -3.942144 -2.407401 0.213024 
H -4.252338 -3.072759 3.605749 
H -3.181771 -2.408751 2.352489 
H -3.086287 -1.909911 -2.474286 
H -5.377376 -2.613447 -3.281327 
H -4.593785 -0.272315 -3.810196 
H -5.610652 -0.902990 -5.112899 
H -3.855147 -0.855882 -5.311812 
H -0.962150 -6.365821 -2.166237 
H -1.074351 -6.315673 0.356319 
H -1.834495 -4.728284 0.276515 
H 0.246316 -3.807355 -0.792938 
H 1.575220 -3.763301 1.306093 
H 0.650361 -5.136448 1.935193 
H -0.151025 -3.577536 1.641210 
H 2.363896 -5.133335 -0.664364 
H 1.224955 -5.914356 -1.764446 
H 1.456327 -6.553939 -0.132854 
H 1.049742 4.690125 3.716303 
H -0.716969 1.027451 3.749035 
H 0.722462 2.580448 4.812097 
H 1.105854 2.262089 3.106989 
H -1.363296 4.291768 -5.589263 
H -2.405802 2.478672 -4.269155
