132

 H         -3.023532   -1.734795   -2.436898
 H         -5.859180    3.078264   -3.456242
 H         -3.509359    3.531450   -2.774965
 H          3.497306    1.021394   -0.722276
 H          6.867824   -3.083084    3.814912
 C         -5.185275    2.256470   -3.236196
 C         -3.865998    2.507494   -2.852807
 C         -5.626480    0.937281   -3.341794
 C         -2.992727    1.458839   -2.565507
 C         -4.763377   -0.123337   -3.068488
 C         -3.444222    0.138579   -2.679272
 O         -2.562340   -0.869129   -2.395502
 H          6.414864   -0.936789    2.726241
 H          0.898289    2.571979    3.343501
 H          5.502295    1.551867   -1.814000
 H         -5.105557   -1.151346   -3.149675
 H         -0.927531   -0.188306    6.110447
 H         -1.042693   -3.149301   -1.211795
 H          0.676316   -1.949583    5.386523
 C          6.799974   -1.736491    2.076500
 H         -0.786141    2.079597    5.105674
 H          4.751243    0.303322    0.331058
 C          0.342761   -4.949432   -0.165314
 O          0.505424   -3.911706    0.452702
 N         -0.553014   -5.137538   -1.185821
 C         -1.277306   -4.036482   -1.809422
 C         -2.804158   -4.202455   -1.755023
 O         -3.539375   -3.424825   -2.372918
 C         -0.855625   -3.778282   -3.264496
 C          0.570032   -3.321977   -3.435439
 O          1.370829   -3.194284   -2.534273
 O          6.015670   -1.825393    0.880379
 N         -3.296740   -5.237708   -1.040738
 C         -4.718671   -5.296246   -0.776213
 C         -5.175840   -4.208559    0.190852
 O         -4.418897   -3.443082    0.737852
 C          3.629888   -2.163622    0.877800
 C          4.995190   -2.818973    1.028179
 O         -0.272750    3.064320   -0.899568
 C          6.630835   -0.290018   -1.664418
 C         -4.928870   -1.442342    3.858455
 C         -1.695717   -0.865132    1.680509
 N         -1.311637   -0.060511    0.505613
 C         -3.482614   -1.590047    3.370204
 O          2.659124    0.774635    2.391414
 C         -0.117227    1.292861    4.766576
 H          0.901969   -5.874302    0.065336
 H          7.277096   -0.039304   -2.511115
 H          7.156097   -0.023995   -0.744143
 H         -0.473435   -6.005638   -1.701080
 C          0.711237   -0.961807    4.937156
 H         -5.119503   -2.063137    4.740143
 C          0.827359    1.576230    3.775647
 H         -1.008103   -4.668479   -3.893595
 C         -3.154993   -0.726579    2.143922
 C          1.661925   -0.689998    3.957463
 C          5.196964   -3.456095    2.421747
 H         -2.657941   -5.711379   -0.417097
 H          0.859757   -3.107678   -4.485634
 S          3.389411   -1.353930   -0.762286
 C          1.716142    0.574848    3.361146
 C          1.058255    1.835528   -3.516399
 O          1.863674    1.094641   -2.959056
 H          2.870878    4.362774   -4.637618
 H          3.441448    2.772102   -4.126910
 H         -4.982440   -6.277015   -0.364850
 H          0.448220    5.639384    0.122451
 H          0.004448    1.561718   -3.683558
 H         -5.272581   -5.177571   -1.713564
 N          1.378301    3.065863   -3.984413
 C          2.736754    3.572122   -3.894075
 C          3.160259    4.149175   -2.536470
 O          4.350852    4.304840   -2.288748
 H         -6.027839    4.506081    0.322559
 H          1.659385    6.623799    0.973247
 H         -3.711501    3.772842   -0.191790
 H          3.444103    5.716648   -0.582575
 H          1.293639    6.952409   -0.727872
 N          2.161742    4.553861   -1.700258
 C          2.500400    5.176302   -0.441015
 C          2.748358    4.188732    0.679099
 O          2.419219    3.013148    0.668352
 C          1.403534    6.160418    0.015894
 H          3.232221    4.622857    1.577698
 H         -1.783410   -0.416887   -0.325436
 H          0.661465    3.612670   -4.439153
 H         -6.271357   -4.177372    0.364728
 H         -1.497021    2.621942    2.296131
 H         -5.318398    3.801638    4.504197
 H         -2.999555    3.095694    3.992361
 C          5.304883    0.472276   -1.790217
 H         -1.979242    1.656271   -2.229721
 H          1.215699    4.192566   -1.798470
 H         -6.649623    0.727613   -3.639945
 C          4.291514    0.276149   -0.656918
 H         -6.844238    4.519533    2.674170
 C         -5.829022    4.209887    2.449402
 C         -4.973378    3.806862    3.474803
 C         -5.367842    4.206219    1.130728
 C         -3.665223    3.407947    3.191260
 C         -4.066061    3.807568    0.832433
 C         -3.220013    3.413011    1.868837
 O         -1.928899    3.033363    1.532965
 C          6.659430   -3.105258    2.742468
 H          2.561414    1.651369    1.970089
 H          2.365404   -1.453787    3.645622
 H          7.339571   -3.824908    2.275649
 H         -1.506071   -3.007665   -3.693869
 C         -0.192065    0.021727    5.341277
 H          7.824140   -1.485428    1.788354
 H          4.995745   -4.529805    2.417340
 H          2.818925   -2.898707    0.926374
 H          5.136788   -3.565155    0.234457
 H         -0.915575    3.174561   -0.176975
 H          0.355808    2.415352   -0.552228
 H          6.490053   -1.373608   -1.657280
 H         -5.155647   -0.403932    4.125840
 H         -5.634238   -1.744144    3.076656
 H         -1.478068   -1.915289    1.448971
 H         -1.666417    0.886923    0.624114
 H         -3.292423   -2.641869    3.121969
 H         -2.791156   -1.335532    4.185236
 H         -3.826444   -0.994139    1.319203
 H         -3.357449    0.329158    2.378826
 H          4.526981   -2.993455    3.155923
 H          4.816000    0.246442   -2.745125
 H         -1.029304   -0.598255    2.509155
 H          1.359097   -0.312251   -1.437453
 C          1.647342   -0.846108   -0.533034
 H          1.576328   -0.217793    0.352471
 H          1.073281   -1.761431   -0.405380
 H          3.465490   -1.387928    1.628742
