166

C   -5.091549  3.325105 -5.941316
C   -5.274173  2.550971 -4.631263
C   -4.241019  1.436270 -4.490282
N   -4.364719  0.758040 -3.157993
C   -3.000829 -5.116157   1.618563
C   -3.753060 -3.810518   1.586548
C   -4.228345 -3.209743   2.763462
C   -4.014940 -3.160801   0.379083
C   -4.950485 -2.021448   2.733147
C   -4.727465 -1.962478   0.333165
C   -5.218027 -1.383383   1.513695
O   -5.928612 -0.227942   1.537630
C   -7.490162 -4.059568  -0.580470
O   -7.979396 -4.031106   0.534291
N   -7.483687 -3.018002  -1.467063
C   -7.855443 -1.659538  -1.097174
C   -6.881935 -0.629576  -1.693107
O   -6.412402 -0.893124  -2.857496
O   -6.571003  0.386347 -1.028836
N    0.828666  1.929769  3.684890
C    1.421873  1.789708  5.005544
C    8.951928 -0.369253 -3.515285
N    7.899418  0.622545 -3.319888
C    6.565919  0.364452 -3.325812
N    6.089471 -0.868508 -3.349923
N    5.700595  1.393216 -3.332578
C    1.243315  6.495738  1.014308
C    0.699472  6.026826  2.365881
O    0.706156  4.860771  2.751417
C    0.085597  6.935080  0.055851
C   -0.978221  5.900832 -0.266693
C   -2.089460  5.719081   0.569592
C   -0.908656  5.116056 -1.427389
C   -3.080663  4.782147   0.278485
C   -1.894095  4.178454 -1.737085
C   -2.978654  4.002413 -0.875548
O   -3.925497  3.053073 -1.205257
N    0.138062  7.025476  3.097720
C   -0.439168  6.762962   4.396032
C    3.157251 -2.390260   5.566559
C    2.365339 -3.361083   4.684340
O    2.252207 -4.549292   4.963221
N    1.787329 -2.780958   3.589026
C    0.786477 -3.440527   2.765154
C    1.238968 -3.497365   1.316317
O  1.909267 -2.603716   0.792437
C -0.529531 -2.630419   2.834137
C -1.066988 -2.592162   4.263211
O -1.372743 -3.609028   4.874520
N -1.188559 -1.346793   4.801916
N  0.762247 -4.540656   0.591086
C  1.079598 -4.629737 -0.813122
C -0.248900  2.331112   0.918359
C  0.647626  1.237611  1.377372
C  1.147965  1.010900  2.709156
O  1.840831  0.000678  2.993960
N  1.072220  0.337657  0.456736
C  0.850034  0.305161 -0.850096
C  1.459877 -0.743642 -1.714316
C  2.819495 -0.411674 -2.372019
O  3.254253  0.781149 -2.310372
O  3.405276 -1.376949 -2.933111
C -2.044977 -0.672684  -0.450506
O -1.902194 -0.521210   0.693853
O -6.608113 -0.347120  -5.577940
O -2.218853 -0.818002  -1.605418
N  2.116418  5.526983  0.400599
C  3.466716  5.744749  0.355134
O  3.988331  6.764490  0.800391
C  4.294348  4.680296 -0.359406
C  3.914626  3.204879 -0.175159
C  3.930809  2.763376  1.290177
O  2.641483  2.992446 -0.783115
C  2.509094 -5.059509 -1.082855
O  3.080501 -5.869847 -0.351977
N  3.053191 -4.554004 -2.217741
C  4.374121 -4.996403 -2.639552
C  5.474766 -4.113724 -1.998428
O  6.342811 -3.548727 -2.675180
N  5.369952 -4.002595 -0.659796
C  6.073767 -2.999894   0.109716
C  4.483233 -4.995232 -4.162302
H -5.835605  4.121871 -6.024327
H -5.213550  2.664633 -6.805528
H -6.272239  2.102695 -4.602482
H -5.187759  3.234445 -3.777418
H -4.404779  0.669561 -5.250241
H -3.221756  1.827532 -4.573332
H -4.376802  1.450807 -2.399251
H -5.258256  0.136909 -3.073286
H -3.569367  0.143390 -2.965898
H -2.288161 -5.187686   0.789293
H -2.449631 -5.230660   2.557837
H -4.014771 -3.677927   3.720264
H -3.654271 -3.594393  -0.552178
H -5.321952 -1.569526   3.647065
H -4.893785 -1.480104  -0.620519
H -6.192514  0.034986   0.623011
H -8.864871 -1.411246  -1.458258
H -7.869846 -1.582305  -0.009419
H  2.500253  1.996060  5.014609
H  9.910856  0.106042 -3.307279
H  8.830942 -1.200345 -2.814831
H  8.161680  1.589500 -3.429541
H  5.058324 -1.024089 -3.258965
H  6.653457 -1.703188 -3.221868
H  6.056042  2.323539 -3.176544
H  4.717270  1.192055 -3.019531
H -0.398370  7.815712   0.492585
H  0.564875  7.269423 -0.869410
H -2.187994  6.323149   1.466817
H -0.068016  5.237889 -2.104762
H -3.928582  4.658824   0.947997
H -1.825338  3.581038 -2.640608
H -4.607515  3.009185 -0.519956
H  1.875683  7.373062  1.189801
H -0.944120  5.796604   4.368389
H  3.266634 -1.398732   5.120796
H -0.344188 -1.625654   2.449570
H -1.299202 -3.081923   2.204477
H -0.885733 -0.514663   4.320383
H -1.533488 -1.273278   5.746851
H  0.634195 -4.440201   3.183121
H  0.424162 -5.381883 -1.266099
H -0.564224  2.978653   1.732839
H  0.239482  2.956093  0.162317
H -1.156763  1.924633   0.448593
H  1.611692 -0.436804   0.869660
H  0.319693  1.145103 -1.279080
H  0.776802 -1.004794 -2.533533
H  1.631009 -1.652536 -1.133997
H -6.765331 -0.661638  -4.668414
H -6.920000 -1.060452  -6.145974
H  8.964162 -0.768292 -4.536262
H -4.099942  3.787372 -6.001851
H  2.634723 -2.298650   6.523413
H  0.317287  6.727070  5.189697
H  4.141790 -2.817940   5.771318
H  0.926408  2.484972  5.688207
H  0.665639  2.882279  3.376324
H  0.858546 -3.675967 -1.296309
H  0.312000  7.981841  2.827672
H  0.436256 -5.364255   1.074517
H  1.933409 -1.789369   3.406844
H -6.956705 -3.104864  -2.325231
H -1.166066  7.541330   4.639690
H -3.678281 -5.975922   1.536191
H -7.016019 -4.963960  -1.011481
H  1.273807  0.771128  5.368182
H  4.317641 -3.989951 -4.559656
H  5.481206 -5.312841 -4.469875
H  3.741734 -5.673679 -4.591922
H  1.766833  4.631265  0.076226
H  5.325769  4.849436 -0.037314
H  4.667187  2.615736 -0.719816
H  2.757800 -3.639631 -2.557340
H  4.492901 -6.010984 -2.245973
H  4.678960 -4.581896 -0.193454
H  6.906087 -3.426937   0.682162
H  6.473364 -2.249997 -0.573135
H  5.379417 -2.520166   0.804952
H  4.246372  4.910947 -1.431915
H  2.684665  2.154159 -1.296178
H  3.709794  1.697135  1.376952
H  4.913703  2.948228  1.738649
H  3.179847  3.310298  1.867076
