166

C -4.942884  3.453486 -5.996461
C -5.096023  2.656344 -4.695018
C -4.051201  1.547206 -4.581574
N -4.130597  0.862644 -3.248769
C -3.131994 -5.066131   1.547715
C -3.923477 -3.782660   1.558528
C -4.726696 -3.425288   2.653858
C -3.883642 -2.904860   0.473986
C -5.471604 -2.250375   2.657519
C -4.607876 -1.714593   0.469594
C -5.424043 -1.380354   1.557818
O -6.171968 -0.245612   1.595515
C -7.564990 -3.913332  -0.716318
O -8.181093 -3.884707   0.335428
N -7.370553 -2.848303  -1.545851
C -7.715237 -1.481429  -1.181280
C -6.673832 -0.485837  -1.717151
O -6.174622 -0.757868  -2.867501
O -6.357068  0.514681 -1.031980
N  0.893848  1.939110  3.682769
C  1.364769  1.736877  5.043587
C  8.988245 -0.517855 -3.368675
N  7.957088  0.493392 -3.156836
C  6.617567  0.263871 -3.166090
N  6.111975 -0.955649 -3.212265
N  5.776313  1.313136 -3.150223
C  1.338345  6.466791  1.076749
C  0.771413  5.994725  2.415592
O  0.763239  4.821637  2.782912
C  0.204169  6.942481  0.108702
C -0.865646  5.927898 -0.250177
C -1.995086  5.745107   0.561106
C -0.778603  5.159151 -1.420267
C -2.988461  4.820846   0.237590
C -1.764712  4.234483 -1.761944
C -2.868496  4.056136 -0.924893
O -3.811653  3.121800 -1.293922
N  0.220966  6.995235  3.149439
C -0.392672  6.747521   4.432784
C  3.012239 -2.478006   5.608395
C  2.248906 -3.423433   4.674852
O  2.199484 -4.632418   4.870658
N  1.610367 -2.799678   3.638911
C  0.667267 -3.468355   2.763786
C  1.164778 -3.523059   1.327118
O  1.853796 -2.634038   0.819419
C -0.666530 -2.682417   2.742118
C -1.445466 -2.663726   4.063895
O -1.528176 -3.607451   4.837603
N -2.082458 -1.470185   4.297873
N  0.678480 -4.554689   0.588952
C  0.995191 -4.643656 -0.816065
C -0.183448  2.364934   0.918170
C  0.670347  1.237415  1.373057
C  1.162315  1.003484  2.732649
O  1.805250 -0.032969   3.008055
N  1.059447  0.323701  0.478317
C  0.769140  0.263998 -0.837225
C  1.436637 -0.760206 -1.698741
C  2.828321 -0.431978 -2.280255
O  3.280131  0.753608 -2.185381
O  3.427234 -1.395879 -2.830642
C -1.559601 -0.441961  -0.748022
O -1.757287 -0.399519   0.413900
O -6.486765 -0.217882  -5.573934
O -1.775978 -0.585823  -1.912364
N  2.203191  5.489849  0.464681
C  3.558302  5.684421  0.439685
O  4.090171  6.696101  0.890307
C  4.376354  4.601566 -0.258602
C  3.980082  3.134127 -0.041564
C  3.993237  2.724758  1.433132
O  2.702449  2.918885 -0.637941
C  2.416267 -5.106093 -1.074728
O  2.955801 -5.940862 -0.346950
N  2.992635 -4.596746 -2.190944
C  4.311034 -5.062540 -2.591989
C  5.417381 -4.202639 -1.930503
O  6.303762 -3.648697 -2.592668
N  5.297364 -4.100321 -0.592251
C  6.003666 -3.113203   0.195193
C  4.446336 -5.060140 -4.112802
H -5.698157  4.242018 -6.055329
H -5.069765  2.806138 -6.870102
H -6.090139  2.200364 -4.657376
H -5.003705  3.329431 -3.833485
H -4.228678  0.782493 -5.340218
H -3.037505  1.946727 -4.691828
H -4.133499  1.555939 -2.490188
H -5.021686  0.237147 -3.133857
H -3.321142  0.256480 -3.078055
H -2.379113 -5.060821   0.752550
H -2.619801 -5.227176   2.503206
H -4.771672 -4.083894   3.517550
H -3.263529 -3.145915  -0.387328
H -6.110665 -1.994411   3.496573
H -4.534604 -1.037947  -0.371668
H -6.242826  0.132759   0.685769
H -8.692573 -1.194352  -1.598517
H -7.791647 -1.409521  -0.096161
H  2.458870  1.772477  5.115546
H  9.957509 -0.064965 -3.158331
H  8.851655 -1.354770 -2.678104
H  8.238834  1.455306 -3.264111
H  5.074405 -1.088274 -3.124433
H  6.653705 -1.808604 -3.107018
H  6.152567  2.231945 -2.976338
H  4.784462  1.132014 -2.855617
H -0.274981  7.822099   0.553157
H  0.704369  7.286983 -0.801638
H -2.107472  6.339169   1.463518
H  0.076393  5.284129 -2.078940
H -3.852347  4.697305   0.886183
H -1.683446  3.647957 -2.671427
H -4.507964  3.046476 -0.625324
H  1.985269  7.329710  1.270882
H  0.330354  6.795767  5.256381
H  3.132936 -1.474432   5.192985
H -0.456189 -1.658389   2.422470
H -1.341663 -3.105551   1.992374
H -2.242076 -0.838894   3.525713
H -2.806286 -1.499746   5.002717
H  0.509519 -4.471719   3.171903
H  0.797044 -3.682664 -1.294562
H  0.324069 -5.378866 -1.273613
H -0.436449  3.051362   1.721123
H  0.319672  2.936496  0.131805
H -1.118547  1.982155   0.490684
H  1.566987 -0.472477   0.893974
H  0.411666  1.186065 -1.278946
H  0.790236 -0.989892 -2.554778
H  1.568098 -1.686831 -1.136178
H -6.606828 -0.513893  -4.651562
H -6.697472 -0.991310  -6.109956
H  8.988897 -0.904604 -4.394597
H -3.957782  3.928889 -6.064630
H  2.460757 -2.410045   6.551376
H -1.180937  7.481940   4.616272
H  3.990306 -2.911866   5.828077
H  0.941659  2.518676  5.677311
H  0.683488  2.888396  3.396700
H  0.393460  7.949479  2.870879
H  0.347815 -5.379929   1.066827
H  1.729445 -1.799266   3.498233
H -6.768616 -2.946895  -2.352066
H -0.828873  5.748174   4.422840
H -3.775641 -5.939328   1.379879
H -7.107571 -4.837566  -1.123492
H  1.033712  0.762234  5.408475
H  5.443410 -5.395837 -4.403961
H  3.699694 -5.723619 -4.556806
H  4.306823 -4.051217 -4.511344
H  1.845890  4.597195  0.141004
H  4.327269  4.809636 -1.335700
H  5.409951  4.767522  0.058212
H  4.724006  2.523484 -0.573559
H  3.765414  1.661392  1.540121
H  4.976868  2.911468  1.878893
H  3.246586  3.290358  1.997935
H    2.752414  2.100360 -1.185129
H    2.719436 -3.674295 -2.525860
H    4.403563 -6.080219 -2.199614
H    4.586664 -4.667454 -0.140746
H    5.293707 -2.562302   0.819197
H    6.759514 -3.571667   0.843710
H    6.501851 -2.420071 -0.482268
